* Extracted by KLayout with SG13G2 LVS runset on : 09/02/2026 02:19

.SUBCKT DAC2U64OUT2IN VSS EN[0]|ON ENB[0]|ONB ON|ON[0] ONB|ONB[0] ON|ON[1]
+ ONB|ONB[1] ONB|ONB[2] ON|ON[3] ONB|ONB[3] ON|ON[4] ONB|ONB[4] ON|ON[5]
+ ONB|ONB[5] ON|ON[6] ONB|ONB[6] ON|ON[7] ONB|ONB[7] ONB|ONB[8] ON|ON[9]
+ ONB|ONB[9] ON|ON[10] ONB|ONB[10] ONB|ONB[11] ONB|ONB[12] ONB|ONB[13]
+ ONB|ONB[14] ON|ON[15] ONB|ONB[15] ON|ON[16] ONB|ONB[16] ONB|ONB[17]
+ ONB|ONB[18] ON|ON[19] ONB|ONB[19] ONB|ONB[20] ONB|ONB[21] ON|ON[22]
+ ONB|ONB[22] ONB|ONB[23] ON|ON[24] ONB|ONB[24] ONB|ONB[25] ONB|ONB[26]
+ ONB|ONB[27] ONB|ONB[28] ONB|ONB[29] ONB|ONB[30] ON|ON[31] ONB|ONB[31]
+ ON|ON[32] ONB|ONB[32] ONB|ONB[33] ONB|ONB[34] ONB|ONB[35] ON|ON[36]
+ ONB|ONB[36] ONB|ONB[37] ONB|ONB[38] ONB|ONB[39] ONB|ONB[40] ONB|ONB[41]
+ ONB|ONB[42] ONB|ONB[43] ONB|ONB[44] ONB|ONB[45] ON|ON[46] ONB|ONB[46]
+ ON|ON[47] ONB|ONB[47] ONB|ONB[48] ONB|ONB[49] ON|ON[50] ONB|ONB[50]
+ ONB|ONB[51] ON|ON[52] ONB|ONB[52] ON|ON[53] ONB|ONB[53] ONB|ONB[54]
+ ONB|ONB[55] ONB|ONB[56] ON|ON[57] ONB|ONB[57] ONB|ONB[58] ONB|ONB[59]
+ ON|ON[60] ONB|ONB[60] ON|ON[61] ONB|ONB[61] ONB|ONB[62] ON|ON[63] ONB|ONB[63]
+ ENB[1]|ONB ON|ON[2] ON|ON[8] ON|ON[11] ON|ON[12] ON|ON[13] ON|ON[14]
+ ON|ON[17] ON|ON[18] ON|ON[20] ON|ON[21] ON|ON[23] ON|ON[25] ON|ON[26]
+ ON|ON[27] ON|ON[28] ON|ON[29] ON|ON[30] ON|ON[33] ON|ON[34] ON|ON[35]
+ ON|ON[37] ON|ON[38] ON|ON[39] ON|ON[40] ON|ON[41] ON|ON[42] ON|ON[43]
+ ON|ON[44] ON|ON[45] ON|ON[48] ON|ON[49] ON|ON[51] ON|ON[54] ON|ON[55]
+ ON|ON[56] ON|ON[58] ON|ON[59] ON|ON[62] EN[1]|ON VDD VcascP VbiasP Iout
M$1 \$95 \$96 VSS VSS sg13_lv_nmos L=0.52u W=0.15u AS=0.162p AD=0.0855p
+ PS=2.16u PD=1.14u
M$2 VSS \$95 \$96 VSS sg13_lv_nmos L=0.52u W=0.15u AS=0.0855p AD=0.162p
+ PS=1.14u PD=2.16u
M$3 \$97 \$98 VSS VSS sg13_lv_nmos L=0.52u W=0.15u AS=0.162p AD=0.0855p
+ PS=2.16u PD=1.14u
M$4 VSS \$97 \$98 VSS sg13_lv_nmos L=0.52u W=0.15u AS=0.0855p AD=0.162p
+ PS=1.14u PD=2.16u
M$5 \$99 \$100 VSS VSS sg13_lv_nmos L=0.52u W=0.15u AS=0.162p AD=0.0855p
+ PS=2.16u PD=1.14u
M$6 VSS \$99 \$100 VSS sg13_lv_nmos L=0.52u W=0.15u AS=0.0855p AD=0.162p
+ PS=1.14u PD=2.16u
M$7 \$101 \$102 VSS VSS sg13_lv_nmos L=0.52u W=0.15u AS=0.162p AD=0.0855p
+ PS=2.16u PD=1.14u
M$8 VSS \$101 \$102 VSS sg13_lv_nmos L=0.52u W=0.15u AS=0.0855p AD=0.162p
+ PS=1.14u PD=2.16u
M$9 \$103 \$104 VSS VSS sg13_lv_nmos L=0.52u W=0.15u AS=0.162p AD=0.0855p
+ PS=2.16u PD=1.14u
M$10 VSS \$103 \$104 VSS sg13_lv_nmos L=0.52u W=0.15u AS=0.0855p AD=0.162p
+ PS=1.14u PD=2.16u
M$11 \$105 \$106 VSS VSS sg13_lv_nmos L=0.52u W=0.15u AS=0.162p AD=0.0855p
+ PS=2.16u PD=1.14u
M$12 VSS \$105 \$106 VSS sg13_lv_nmos L=0.52u W=0.15u AS=0.0855p AD=0.162p
+ PS=1.14u PD=2.16u
M$13 \$107 \$108 VSS VSS sg13_lv_nmos L=0.52u W=0.15u AS=0.162p AD=0.0855p
+ PS=2.16u PD=1.14u
M$14 VSS \$107 \$108 VSS sg13_lv_nmos L=0.52u W=0.15u AS=0.0855p AD=0.162p
+ PS=1.14u PD=2.16u
M$15 \$109 \$110 VSS VSS sg13_lv_nmos L=0.52u W=0.15u AS=0.162p AD=0.0855p
+ PS=2.16u PD=1.14u
M$16 VSS \$109 \$110 VSS sg13_lv_nmos L=0.52u W=0.15u AS=0.0855p AD=0.162p
+ PS=1.14u PD=2.16u
M$17 \$111 \$112 VSS VSS sg13_lv_nmos L=0.52u W=0.15u AS=0.162p AD=0.0855p
+ PS=2.16u PD=1.14u
M$18 VSS \$111 \$112 VSS sg13_lv_nmos L=0.52u W=0.15u AS=0.0855p AD=0.162p
+ PS=1.14u PD=2.16u
M$19 \$113 \$114 VSS VSS sg13_lv_nmos L=0.52u W=0.15u AS=0.162p AD=0.0855p
+ PS=2.16u PD=1.14u
M$20 VSS \$113 \$114 VSS sg13_lv_nmos L=0.52u W=0.15u AS=0.0855p AD=0.162p
+ PS=1.14u PD=2.16u
M$21 \$115 \$116 VSS VSS sg13_lv_nmos L=0.52u W=0.15u AS=0.162p AD=0.0855p
+ PS=2.16u PD=1.14u
M$22 VSS \$115 \$116 VSS sg13_lv_nmos L=0.52u W=0.15u AS=0.0855p AD=0.162p
+ PS=1.14u PD=2.16u
M$23 \$117 \$118 VSS VSS sg13_lv_nmos L=0.52u W=0.15u AS=0.162p AD=0.0855p
+ PS=2.16u PD=1.14u
M$24 VSS \$117 \$118 VSS sg13_lv_nmos L=0.52u W=0.15u AS=0.0855p AD=0.162p
+ PS=1.14u PD=2.16u
M$25 \$119 \$120 VSS VSS sg13_lv_nmos L=0.52u W=0.15u AS=0.162p AD=0.0855p
+ PS=2.16u PD=1.14u
M$26 VSS \$119 \$120 VSS sg13_lv_nmos L=0.52u W=0.15u AS=0.0855p AD=0.162p
+ PS=1.14u PD=2.16u
M$27 \$121 \$122 VSS VSS sg13_lv_nmos L=0.52u W=0.15u AS=0.162p AD=0.0855p
+ PS=2.16u PD=1.14u
M$28 VSS \$121 \$122 VSS sg13_lv_nmos L=0.52u W=0.15u AS=0.0855p AD=0.162p
+ PS=1.14u PD=2.16u
M$29 \$123 \$124 VSS VSS sg13_lv_nmos L=0.52u W=0.15u AS=0.162p AD=0.0855p
+ PS=2.16u PD=1.14u
M$30 VSS \$123 \$124 VSS sg13_lv_nmos L=0.52u W=0.15u AS=0.0855p AD=0.162p
+ PS=1.14u PD=2.16u
M$31 \$125 \$126 VSS VSS sg13_lv_nmos L=0.52u W=0.15u AS=0.162p AD=0.0855p
+ PS=2.16u PD=1.14u
M$32 VSS \$125 \$126 VSS sg13_lv_nmos L=0.52u W=0.15u AS=0.0855p AD=0.162p
+ PS=1.14u PD=2.16u
M$33 \$127 \$128 VSS VSS sg13_lv_nmos L=0.52u W=0.15u AS=0.162p AD=0.0855p
+ PS=2.16u PD=1.14u
M$34 VSS \$127 \$128 VSS sg13_lv_nmos L=0.52u W=0.15u AS=0.0855p AD=0.162p
+ PS=1.14u PD=2.16u
M$35 \$129 \$130 VSS VSS sg13_lv_nmos L=0.52u W=0.15u AS=0.162p AD=0.0855p
+ PS=2.16u PD=1.14u
M$36 VSS \$129 \$130 VSS sg13_lv_nmos L=0.52u W=0.15u AS=0.0855p AD=0.162p
+ PS=1.14u PD=2.16u
M$37 \$131 \$132 VSS VSS sg13_lv_nmos L=0.52u W=0.15u AS=0.162p AD=0.0855p
+ PS=2.16u PD=1.14u
M$38 VSS \$131 \$132 VSS sg13_lv_nmos L=0.52u W=0.15u AS=0.0855p AD=0.162p
+ PS=1.14u PD=2.16u
M$39 \$133 \$134 VSS VSS sg13_lv_nmos L=0.52u W=0.15u AS=0.162p AD=0.0855p
+ PS=2.16u PD=1.14u
M$40 VSS \$133 \$134 VSS sg13_lv_nmos L=0.52u W=0.15u AS=0.0855p AD=0.162p
+ PS=1.14u PD=2.16u
M$41 \$135 \$136 VSS VSS sg13_lv_nmos L=0.52u W=0.15u AS=0.162p AD=0.0855p
+ PS=2.16u PD=1.14u
M$42 VSS \$135 \$136 VSS sg13_lv_nmos L=0.52u W=0.15u AS=0.0855p AD=0.162p
+ PS=1.14u PD=2.16u
M$43 \$137 \$138 VSS VSS sg13_lv_nmos L=0.52u W=0.15u AS=0.162p AD=0.0855p
+ PS=2.16u PD=1.14u
M$44 VSS \$137 \$138 VSS sg13_lv_nmos L=0.52u W=0.15u AS=0.0855p AD=0.162p
+ PS=1.14u PD=2.16u
M$45 \$139 \$140 VSS VSS sg13_lv_nmos L=0.52u W=0.15u AS=0.162p AD=0.0855p
+ PS=2.16u PD=1.14u
M$46 VSS \$139 \$140 VSS sg13_lv_nmos L=0.52u W=0.15u AS=0.0855p AD=0.162p
+ PS=1.14u PD=2.16u
M$47 \$141 \$142 VSS VSS sg13_lv_nmos L=0.52u W=0.15u AS=0.162p AD=0.0855p
+ PS=2.16u PD=1.14u
M$48 VSS \$141 \$142 VSS sg13_lv_nmos L=0.52u W=0.15u AS=0.0855p AD=0.162p
+ PS=1.14u PD=2.16u
M$49 \$143 \$144 VSS VSS sg13_lv_nmos L=0.52u W=0.15u AS=0.162p AD=0.0855p
+ PS=2.16u PD=1.14u
M$50 VSS \$143 \$144 VSS sg13_lv_nmos L=0.52u W=0.15u AS=0.0855p AD=0.162p
+ PS=1.14u PD=2.16u
M$51 \$145 \$146 VSS VSS sg13_lv_nmos L=0.52u W=0.15u AS=0.162p AD=0.0855p
+ PS=2.16u PD=1.14u
M$52 VSS \$145 \$146 VSS sg13_lv_nmos L=0.52u W=0.15u AS=0.0855p AD=0.162p
+ PS=1.14u PD=2.16u
M$53 \$147 \$148 VSS VSS sg13_lv_nmos L=0.52u W=0.15u AS=0.162p AD=0.0855p
+ PS=2.16u PD=1.14u
M$54 VSS \$147 \$148 VSS sg13_lv_nmos L=0.52u W=0.15u AS=0.0855p AD=0.162p
+ PS=1.14u PD=2.16u
M$55 \$149 \$150 VSS VSS sg13_lv_nmos L=0.52u W=0.15u AS=0.162p AD=0.0855p
+ PS=2.16u PD=1.14u
M$56 VSS \$149 \$150 VSS sg13_lv_nmos L=0.52u W=0.15u AS=0.0855p AD=0.162p
+ PS=1.14u PD=2.16u
M$57 \$151 \$152 VSS VSS sg13_lv_nmos L=0.52u W=0.15u AS=0.162p AD=0.0855p
+ PS=2.16u PD=1.14u
M$58 VSS \$151 \$152 VSS sg13_lv_nmos L=0.52u W=0.15u AS=0.0855p AD=0.162p
+ PS=1.14u PD=2.16u
M$59 \$153 \$154 VSS VSS sg13_lv_nmos L=0.52u W=0.15u AS=0.162p AD=0.0855p
+ PS=2.16u PD=1.14u
M$60 VSS \$153 \$154 VSS sg13_lv_nmos L=0.52u W=0.15u AS=0.0855p AD=0.162p
+ PS=1.14u PD=2.16u
M$61 \$155 \$156 VSS VSS sg13_lv_nmos L=0.52u W=0.15u AS=0.162p AD=0.0855p
+ PS=2.16u PD=1.14u
M$62 VSS \$155 \$156 VSS sg13_lv_nmos L=0.52u W=0.15u AS=0.0855p AD=0.162p
+ PS=1.14u PD=2.16u
M$63 \$157 \$158 VSS VSS sg13_lv_nmos L=0.52u W=0.15u AS=0.162p AD=0.0855p
+ PS=2.16u PD=1.14u
M$64 VSS \$157 \$158 VSS sg13_lv_nmos L=0.52u W=0.15u AS=0.0855p AD=0.162p
+ PS=1.14u PD=2.16u
M$65 \$159 \$160 VSS VSS sg13_lv_nmos L=0.52u W=0.15u AS=0.162p AD=0.0855p
+ PS=2.16u PD=1.14u
M$66 VSS \$159 \$160 VSS sg13_lv_nmos L=0.52u W=0.15u AS=0.0855p AD=0.162p
+ PS=1.14u PD=2.16u
M$67 \$161 \$162 VSS VSS sg13_lv_nmos L=0.52u W=0.15u AS=0.162p AD=0.0855p
+ PS=2.16u PD=1.14u
M$68 VSS \$161 \$162 VSS sg13_lv_nmos L=0.52u W=0.15u AS=0.0855p AD=0.162p
+ PS=1.14u PD=2.16u
M$69 \$163 \$164 VSS VSS sg13_lv_nmos L=0.52u W=0.15u AS=0.162p AD=0.0855p
+ PS=2.16u PD=1.14u
M$70 VSS \$163 \$164 VSS sg13_lv_nmos L=0.52u W=0.15u AS=0.0855p AD=0.162p
+ PS=1.14u PD=2.16u
M$71 \$165 \$166 VSS VSS sg13_lv_nmos L=0.52u W=0.15u AS=0.162p AD=0.0855p
+ PS=2.16u PD=1.14u
M$72 VSS \$165 \$166 VSS sg13_lv_nmos L=0.52u W=0.15u AS=0.0855p AD=0.162p
+ PS=1.14u PD=2.16u
M$73 \$167 \$168 VSS VSS sg13_lv_nmos L=0.52u W=0.15u AS=0.162p AD=0.0855p
+ PS=2.16u PD=1.14u
M$74 VSS \$167 \$168 VSS sg13_lv_nmos L=0.52u W=0.15u AS=0.0855p AD=0.162p
+ PS=1.14u PD=2.16u
M$75 \$169 \$170 VSS VSS sg13_lv_nmos L=0.52u W=0.15u AS=0.162p AD=0.0855p
+ PS=2.16u PD=1.14u
M$76 VSS \$169 \$170 VSS sg13_lv_nmos L=0.52u W=0.15u AS=0.0855p AD=0.162p
+ PS=1.14u PD=2.16u
M$77 \$171 \$172 VSS VSS sg13_lv_nmos L=0.52u W=0.15u AS=0.162p AD=0.0855p
+ PS=2.16u PD=1.14u
M$78 VSS \$171 \$172 VSS sg13_lv_nmos L=0.52u W=0.15u AS=0.0855p AD=0.162p
+ PS=1.14u PD=2.16u
M$79 \$173 \$174 VSS VSS sg13_lv_nmos L=0.52u W=0.15u AS=0.162p AD=0.0855p
+ PS=2.16u PD=1.14u
M$80 VSS \$173 \$174 VSS sg13_lv_nmos L=0.52u W=0.15u AS=0.0855p AD=0.162p
+ PS=1.14u PD=2.16u
M$81 \$175 \$176 VSS VSS sg13_lv_nmos L=0.52u W=0.15u AS=0.162p AD=0.0855p
+ PS=2.16u PD=1.14u
M$82 VSS \$175 \$176 VSS sg13_lv_nmos L=0.52u W=0.15u AS=0.0855p AD=0.162p
+ PS=1.14u PD=2.16u
M$83 \$177 \$178 VSS VSS sg13_lv_nmos L=0.52u W=0.15u AS=0.162p AD=0.0855p
+ PS=2.16u PD=1.14u
M$84 VSS \$177 \$178 VSS sg13_lv_nmos L=0.52u W=0.15u AS=0.0855p AD=0.162p
+ PS=1.14u PD=2.16u
M$85 \$179 \$180 VSS VSS sg13_lv_nmos L=0.52u W=0.15u AS=0.162p AD=0.0855p
+ PS=2.16u PD=1.14u
M$86 VSS \$179 \$180 VSS sg13_lv_nmos L=0.52u W=0.15u AS=0.0855p AD=0.162p
+ PS=1.14u PD=2.16u
M$87 \$181 \$182 VSS VSS sg13_lv_nmos L=0.52u W=0.15u AS=0.162p AD=0.0855p
+ PS=2.16u PD=1.14u
M$88 VSS \$181 \$182 VSS sg13_lv_nmos L=0.52u W=0.15u AS=0.0855p AD=0.162p
+ PS=1.14u PD=2.16u
M$89 \$183 \$184 VSS VSS sg13_lv_nmos L=0.52u W=0.15u AS=0.162p AD=0.0855p
+ PS=2.16u PD=1.14u
M$90 VSS \$183 \$184 VSS sg13_lv_nmos L=0.52u W=0.15u AS=0.0855p AD=0.162p
+ PS=1.14u PD=2.16u
M$91 \$185 \$186 VSS VSS sg13_lv_nmos L=0.52u W=0.15u AS=0.162p AD=0.0855p
+ PS=2.16u PD=1.14u
M$92 VSS \$185 \$186 VSS sg13_lv_nmos L=0.52u W=0.15u AS=0.0855p AD=0.162p
+ PS=1.14u PD=2.16u
M$93 \$187 \$188 VSS VSS sg13_lv_nmos L=0.52u W=0.15u AS=0.162p AD=0.0855p
+ PS=2.16u PD=1.14u
M$94 VSS \$187 \$188 VSS sg13_lv_nmos L=0.52u W=0.15u AS=0.0855p AD=0.162p
+ PS=1.14u PD=2.16u
M$95 \$189 \$190 VSS VSS sg13_lv_nmos L=0.52u W=0.15u AS=0.162p AD=0.0855p
+ PS=2.16u PD=1.14u
M$96 VSS \$189 \$190 VSS sg13_lv_nmos L=0.52u W=0.15u AS=0.0855p AD=0.162p
+ PS=1.14u PD=2.16u
M$97 \$191 \$192 VSS VSS sg13_lv_nmos L=0.52u W=0.15u AS=0.162p AD=0.0855p
+ PS=2.16u PD=1.14u
M$98 VSS \$191 \$192 VSS sg13_lv_nmos L=0.52u W=0.15u AS=0.0855p AD=0.162p
+ PS=1.14u PD=2.16u
M$99 \$193 \$194 VSS VSS sg13_lv_nmos L=0.52u W=0.15u AS=0.162p AD=0.0855p
+ PS=2.16u PD=1.14u
M$100 VSS \$193 \$194 VSS sg13_lv_nmos L=0.52u W=0.15u AS=0.0855p AD=0.162p
+ PS=1.14u PD=2.16u
M$101 \$195 \$196 VSS VSS sg13_lv_nmos L=0.52u W=0.15u AS=0.162p AD=0.0855p
+ PS=2.16u PD=1.14u
M$102 VSS \$195 \$196 VSS sg13_lv_nmos L=0.52u W=0.15u AS=0.0855p AD=0.162p
+ PS=1.14u PD=2.16u
M$103 \$197 \$198 VSS VSS sg13_lv_nmos L=0.52u W=0.15u AS=0.162p AD=0.0855p
+ PS=2.16u PD=1.14u
M$104 VSS \$197 \$198 VSS sg13_lv_nmos L=0.52u W=0.15u AS=0.0855p AD=0.162p
+ PS=1.14u PD=2.16u
M$105 \$199 \$200 VSS VSS sg13_lv_nmos L=0.52u W=0.15u AS=0.162p AD=0.0855p
+ PS=2.16u PD=1.14u
M$106 VSS \$199 \$200 VSS sg13_lv_nmos L=0.52u W=0.15u AS=0.0855p AD=0.162p
+ PS=1.14u PD=2.16u
M$107 \$201 \$202 VSS VSS sg13_lv_nmos L=0.52u W=0.15u AS=0.162p AD=0.0855p
+ PS=2.16u PD=1.14u
M$108 VSS \$201 \$202 VSS sg13_lv_nmos L=0.52u W=0.15u AS=0.0855p AD=0.162p
+ PS=1.14u PD=2.16u
M$109 \$203 \$204 VSS VSS sg13_lv_nmos L=0.52u W=0.15u AS=0.162p AD=0.0855p
+ PS=2.16u PD=1.14u
M$110 VSS \$203 \$204 VSS sg13_lv_nmos L=0.52u W=0.15u AS=0.0855p AD=0.162p
+ PS=1.14u PD=2.16u
M$111 \$205 \$206 VSS VSS sg13_lv_nmos L=0.52u W=0.15u AS=0.162p AD=0.0855p
+ PS=2.16u PD=1.14u
M$112 VSS \$205 \$206 VSS sg13_lv_nmos L=0.52u W=0.15u AS=0.0855p AD=0.162p
+ PS=1.14u PD=2.16u
M$113 \$207 \$208 VSS VSS sg13_lv_nmos L=0.52u W=0.15u AS=0.162p AD=0.0855p
+ PS=2.16u PD=1.14u
M$114 VSS \$207 \$208 VSS sg13_lv_nmos L=0.52u W=0.15u AS=0.0855p AD=0.162p
+ PS=1.14u PD=2.16u
M$115 \$209 \$210 VSS VSS sg13_lv_nmos L=0.52u W=0.15u AS=0.162p AD=0.0855p
+ PS=2.16u PD=1.14u
M$116 VSS \$209 \$210 VSS sg13_lv_nmos L=0.52u W=0.15u AS=0.0855p AD=0.162p
+ PS=1.14u PD=2.16u
M$117 \$211 \$212 VSS VSS sg13_lv_nmos L=0.52u W=0.15u AS=0.162p AD=0.0855p
+ PS=2.16u PD=1.14u
M$118 VSS \$211 \$212 VSS sg13_lv_nmos L=0.52u W=0.15u AS=0.0855p AD=0.162p
+ PS=1.14u PD=2.16u
M$119 \$213 \$214 VSS VSS sg13_lv_nmos L=0.52u W=0.15u AS=0.162p AD=0.0855p
+ PS=2.16u PD=1.14u
M$120 VSS \$213 \$214 VSS sg13_lv_nmos L=0.52u W=0.15u AS=0.0855p AD=0.162p
+ PS=1.14u PD=2.16u
M$121 \$215 \$216 VSS VSS sg13_lv_nmos L=0.52u W=0.15u AS=0.162p AD=0.0855p
+ PS=2.16u PD=1.14u
M$122 VSS \$215 \$216 VSS sg13_lv_nmos L=0.52u W=0.15u AS=0.0855p AD=0.162p
+ PS=1.14u PD=2.16u
M$123 \$217 \$218 VSS VSS sg13_lv_nmos L=0.52u W=0.15u AS=0.162p AD=0.0855p
+ PS=2.16u PD=1.14u
M$124 VSS \$217 \$218 VSS sg13_lv_nmos L=0.52u W=0.15u AS=0.0855p AD=0.162p
+ PS=1.14u PD=2.16u
M$125 \$219 \$220 VSS VSS sg13_lv_nmos L=0.52u W=0.15u AS=0.162p AD=0.0855p
+ PS=2.16u PD=1.14u
M$126 VSS \$219 \$220 VSS sg13_lv_nmos L=0.52u W=0.15u AS=0.0855p AD=0.162p
+ PS=1.14u PD=2.16u
M$127 \$221 \$222 VSS VSS sg13_lv_nmos L=0.52u W=0.15u AS=0.162p AD=0.0855p
+ PS=2.16u PD=1.14u
M$128 VSS \$221 \$222 VSS sg13_lv_nmos L=0.52u W=0.15u AS=0.0855p AD=0.162p
+ PS=1.14u PD=2.16u
M$129 \$223 \$224 VSS VSS sg13_lv_nmos L=0.52u W=0.15u AS=0.162p AD=0.0855p
+ PS=2.16u PD=1.14u
M$130 VSS \$223 \$224 VSS sg13_lv_nmos L=0.52u W=0.15u AS=0.0855p AD=0.162p
+ PS=1.14u PD=2.16u
M$131 \$225 \$226 VSS VSS sg13_lv_nmos L=0.52u W=0.15u AS=0.162p AD=0.0855p
+ PS=2.16u PD=1.14u
M$132 VSS \$225 \$226 VSS sg13_lv_nmos L=0.52u W=0.15u AS=0.0855p AD=0.162p
+ PS=1.14u PD=2.16u
M$133 \$95 EN[0]|ON VDD VDD sg13_lv_pmos L=0.13u W=0.3u AS=0.1725p AD=0.057p
+ PS=1.75u PD=0.68u
M$134 VDD ENB[0]|ONB \$96 VDD sg13_lv_pmos L=0.13u W=0.3u AS=0.057p AD=0.1725p
+ PS=0.68u PD=1.75u
M$135 \$97 ON|ON[0] VDD VDD sg13_lv_pmos L=0.13u W=0.3u AS=0.1725p AD=0.057p
+ PS=1.75u PD=0.68u
M$136 VDD ONB|ONB[0] \$98 VDD sg13_lv_pmos L=0.13u W=0.3u AS=0.057p AD=0.1725p
+ PS=0.68u PD=1.75u
M$137 \$99 ON|ON[1] VDD VDD sg13_lv_pmos L=0.13u W=0.3u AS=0.1725p AD=0.057p
+ PS=1.75u PD=0.68u
M$138 VDD ONB|ONB[1] \$100 VDD sg13_lv_pmos L=0.13u W=0.3u AS=0.057p AD=0.1725p
+ PS=0.68u PD=1.75u
M$139 \$101 ON|ON[2] VDD VDD sg13_lv_pmos L=0.13u W=0.3u AS=0.1725p AD=0.057p
+ PS=1.75u PD=0.68u
M$140 VDD ONB|ONB[2] \$102 VDD sg13_lv_pmos L=0.13u W=0.3u AS=0.057p AD=0.1725p
+ PS=0.68u PD=1.75u
M$141 \$103 ON|ON[3] VDD VDD sg13_lv_pmos L=0.13u W=0.3u AS=0.1725p AD=0.057p
+ PS=1.75u PD=0.68u
M$142 VDD ONB|ONB[3] \$104 VDD sg13_lv_pmos L=0.13u W=0.3u AS=0.057p AD=0.1725p
+ PS=0.68u PD=1.75u
M$143 \$105 ON|ON[4] VDD VDD sg13_lv_pmos L=0.13u W=0.3u AS=0.1725p AD=0.057p
+ PS=1.75u PD=0.68u
M$144 VDD ONB|ONB[4] \$106 VDD sg13_lv_pmos L=0.13u W=0.3u AS=0.057p AD=0.1725p
+ PS=0.68u PD=1.75u
M$145 \$107 ON|ON[5] VDD VDD sg13_lv_pmos L=0.13u W=0.3u AS=0.1725p AD=0.057p
+ PS=1.75u PD=0.68u
M$146 VDD ONB|ONB[5] \$108 VDD sg13_lv_pmos L=0.13u W=0.3u AS=0.057p AD=0.1725p
+ PS=0.68u PD=1.75u
M$147 \$109 ON|ON[6] VDD VDD sg13_lv_pmos L=0.13u W=0.3u AS=0.1725p AD=0.057p
+ PS=1.75u PD=0.68u
M$148 VDD ONB|ONB[6] \$110 VDD sg13_lv_pmos L=0.13u W=0.3u AS=0.057p AD=0.1725p
+ PS=0.68u PD=1.75u
M$149 \$111 ON|ON[7] VDD VDD sg13_lv_pmos L=0.13u W=0.3u AS=0.1725p AD=0.057p
+ PS=1.75u PD=0.68u
M$150 VDD ONB|ONB[7] \$112 VDD sg13_lv_pmos L=0.13u W=0.3u AS=0.057p AD=0.1725p
+ PS=0.68u PD=1.75u
M$151 \$113 ON|ON[8] VDD VDD sg13_lv_pmos L=0.13u W=0.3u AS=0.1725p AD=0.057p
+ PS=1.75u PD=0.68u
M$152 VDD ONB|ONB[8] \$114 VDD sg13_lv_pmos L=0.13u W=0.3u AS=0.057p AD=0.1725p
+ PS=0.68u PD=1.75u
M$153 \$115 ON|ON[9] VDD VDD sg13_lv_pmos L=0.13u W=0.3u AS=0.1725p AD=0.057p
+ PS=1.75u PD=0.68u
M$154 VDD ONB|ONB[9] \$116 VDD sg13_lv_pmos L=0.13u W=0.3u AS=0.057p AD=0.1725p
+ PS=0.68u PD=1.75u
M$155 \$117 ON|ON[10] VDD VDD sg13_lv_pmos L=0.13u W=0.3u AS=0.1725p AD=0.057p
+ PS=1.75u PD=0.68u
M$156 VDD ONB|ONB[10] \$118 VDD sg13_lv_pmos L=0.13u W=0.3u AS=0.057p
+ AD=0.1725p PS=0.68u PD=1.75u
M$157 \$119 ON|ON[11] VDD VDD sg13_lv_pmos L=0.13u W=0.3u AS=0.1725p AD=0.057p
+ PS=1.75u PD=0.68u
M$158 VDD ONB|ONB[11] \$120 VDD sg13_lv_pmos L=0.13u W=0.3u AS=0.057p
+ AD=0.1725p PS=0.68u PD=1.75u
M$159 \$121 ON|ON[12] VDD VDD sg13_lv_pmos L=0.13u W=0.3u AS=0.1725p AD=0.057p
+ PS=1.75u PD=0.68u
M$160 VDD ONB|ONB[12] \$122 VDD sg13_lv_pmos L=0.13u W=0.3u AS=0.057p
+ AD=0.1725p PS=0.68u PD=1.75u
M$161 \$123 ON|ON[13] VDD VDD sg13_lv_pmos L=0.13u W=0.3u AS=0.1725p AD=0.057p
+ PS=1.75u PD=0.68u
M$162 VDD ONB|ONB[13] \$124 VDD sg13_lv_pmos L=0.13u W=0.3u AS=0.057p
+ AD=0.1725p PS=0.68u PD=1.75u
M$163 \$125 ON|ON[14] VDD VDD sg13_lv_pmos L=0.13u W=0.3u AS=0.1725p AD=0.057p
+ PS=1.75u PD=0.68u
M$164 VDD ONB|ONB[14] \$126 VDD sg13_lv_pmos L=0.13u W=0.3u AS=0.057p
+ AD=0.1725p PS=0.68u PD=1.75u
M$165 \$127 ON|ON[15] VDD VDD sg13_lv_pmos L=0.13u W=0.3u AS=0.1725p AD=0.057p
+ PS=1.75u PD=0.68u
M$166 VDD ONB|ONB[15] \$128 VDD sg13_lv_pmos L=0.13u W=0.3u AS=0.057p
+ AD=0.1725p PS=0.68u PD=1.75u
M$167 \$129 ON|ON[16] VDD VDD sg13_lv_pmos L=0.13u W=0.3u AS=0.1725p AD=0.057p
+ PS=1.75u PD=0.68u
M$168 VDD ONB|ONB[16] \$130 VDD sg13_lv_pmos L=0.13u W=0.3u AS=0.057p
+ AD=0.1725p PS=0.68u PD=1.75u
M$169 \$131 ON|ON[17] VDD VDD sg13_lv_pmos L=0.13u W=0.3u AS=0.1725p AD=0.057p
+ PS=1.75u PD=0.68u
M$170 VDD ONB|ONB[17] \$132 VDD sg13_lv_pmos L=0.13u W=0.3u AS=0.057p
+ AD=0.1725p PS=0.68u PD=1.75u
M$171 \$133 ON|ON[18] VDD VDD sg13_lv_pmos L=0.13u W=0.3u AS=0.1725p AD=0.057p
+ PS=1.75u PD=0.68u
M$172 VDD ONB|ONB[18] \$134 VDD sg13_lv_pmos L=0.13u W=0.3u AS=0.057p
+ AD=0.1725p PS=0.68u PD=1.75u
M$173 \$135 ON|ON[19] VDD VDD sg13_lv_pmos L=0.13u W=0.3u AS=0.1725p AD=0.057p
+ PS=1.75u PD=0.68u
M$174 VDD ONB|ONB[19] \$136 VDD sg13_lv_pmos L=0.13u W=0.3u AS=0.057p
+ AD=0.1725p PS=0.68u PD=1.75u
M$175 \$137 ON|ON[20] VDD VDD sg13_lv_pmos L=0.13u W=0.3u AS=0.1725p AD=0.057p
+ PS=1.75u PD=0.68u
M$176 VDD ONB|ONB[20] \$138 VDD sg13_lv_pmos L=0.13u W=0.3u AS=0.057p
+ AD=0.1725p PS=0.68u PD=1.75u
M$177 \$139 ON|ON[21] VDD VDD sg13_lv_pmos L=0.13u W=0.3u AS=0.1725p AD=0.057p
+ PS=1.75u PD=0.68u
M$178 VDD ONB|ONB[21] \$140 VDD sg13_lv_pmos L=0.13u W=0.3u AS=0.057p
+ AD=0.1725p PS=0.68u PD=1.75u
M$179 \$141 ON|ON[22] VDD VDD sg13_lv_pmos L=0.13u W=0.3u AS=0.1725p AD=0.057p
+ PS=1.75u PD=0.68u
M$180 VDD ONB|ONB[22] \$142 VDD sg13_lv_pmos L=0.13u W=0.3u AS=0.057p
+ AD=0.1725p PS=0.68u PD=1.75u
M$181 \$143 ON|ON[23] VDD VDD sg13_lv_pmos L=0.13u W=0.3u AS=0.1725p AD=0.057p
+ PS=1.75u PD=0.68u
M$182 VDD ONB|ONB[23] \$144 VDD sg13_lv_pmos L=0.13u W=0.3u AS=0.057p
+ AD=0.1725p PS=0.68u PD=1.75u
M$183 \$145 ON|ON[24] VDD VDD sg13_lv_pmos L=0.13u W=0.3u AS=0.1725p AD=0.057p
+ PS=1.75u PD=0.68u
M$184 VDD ONB|ONB[24] \$146 VDD sg13_lv_pmos L=0.13u W=0.3u AS=0.057p
+ AD=0.1725p PS=0.68u PD=1.75u
M$185 \$147 ON|ON[25] VDD VDD sg13_lv_pmos L=0.13u W=0.3u AS=0.1725p AD=0.057p
+ PS=1.75u PD=0.68u
M$186 VDD ONB|ONB[25] \$148 VDD sg13_lv_pmos L=0.13u W=0.3u AS=0.057p
+ AD=0.1725p PS=0.68u PD=1.75u
M$187 \$149 ON|ON[26] VDD VDD sg13_lv_pmos L=0.13u W=0.3u AS=0.1725p AD=0.057p
+ PS=1.75u PD=0.68u
M$188 VDD ONB|ONB[26] \$150 VDD sg13_lv_pmos L=0.13u W=0.3u AS=0.057p
+ AD=0.1725p PS=0.68u PD=1.75u
M$189 \$151 ON|ON[27] VDD VDD sg13_lv_pmos L=0.13u W=0.3u AS=0.1725p AD=0.057p
+ PS=1.75u PD=0.68u
M$190 VDD ONB|ONB[27] \$152 VDD sg13_lv_pmos L=0.13u W=0.3u AS=0.057p
+ AD=0.1725p PS=0.68u PD=1.75u
M$191 \$153 ON|ON[28] VDD VDD sg13_lv_pmos L=0.13u W=0.3u AS=0.1725p AD=0.057p
+ PS=1.75u PD=0.68u
M$192 VDD ONB|ONB[28] \$154 VDD sg13_lv_pmos L=0.13u W=0.3u AS=0.057p
+ AD=0.1725p PS=0.68u PD=1.75u
M$193 \$155 ON|ON[29] VDD VDD sg13_lv_pmos L=0.13u W=0.3u AS=0.1725p AD=0.057p
+ PS=1.75u PD=0.68u
M$194 VDD ONB|ONB[29] \$156 VDD sg13_lv_pmos L=0.13u W=0.3u AS=0.057p
+ AD=0.1725p PS=0.68u PD=1.75u
M$195 \$157 ON|ON[30] VDD VDD sg13_lv_pmos L=0.13u W=0.3u AS=0.1725p AD=0.057p
+ PS=1.75u PD=0.68u
M$196 VDD ONB|ONB[30] \$158 VDD sg13_lv_pmos L=0.13u W=0.3u AS=0.057p
+ AD=0.1725p PS=0.68u PD=1.75u
M$197 \$159 ON|ON[31] VDD VDD sg13_lv_pmos L=0.13u W=0.3u AS=0.1725p AD=0.057p
+ PS=1.75u PD=0.68u
M$198 VDD ONB|ONB[31] \$160 VDD sg13_lv_pmos L=0.13u W=0.3u AS=0.057p
+ AD=0.1725p PS=0.68u PD=1.75u
M$199 \$161 ON|ON[32] VDD VDD sg13_lv_pmos L=0.13u W=0.3u AS=0.1725p AD=0.057p
+ PS=1.75u PD=0.68u
M$200 VDD ONB|ONB[32] \$162 VDD sg13_lv_pmos L=0.13u W=0.3u AS=0.057p
+ AD=0.1725p PS=0.68u PD=1.75u
M$201 \$163 ON|ON[33] VDD VDD sg13_lv_pmos L=0.13u W=0.3u AS=0.1725p AD=0.057p
+ PS=1.75u PD=0.68u
M$202 VDD ONB|ONB[33] \$164 VDD sg13_lv_pmos L=0.13u W=0.3u AS=0.057p
+ AD=0.1725p PS=0.68u PD=1.75u
M$203 \$165 ON|ON[34] VDD VDD sg13_lv_pmos L=0.13u W=0.3u AS=0.1725p AD=0.057p
+ PS=1.75u PD=0.68u
M$204 VDD ONB|ONB[34] \$166 VDD sg13_lv_pmos L=0.13u W=0.3u AS=0.057p
+ AD=0.1725p PS=0.68u PD=1.75u
M$205 \$167 ON|ON[35] VDD VDD sg13_lv_pmos L=0.13u W=0.3u AS=0.1725p AD=0.057p
+ PS=1.75u PD=0.68u
M$206 VDD ONB|ONB[35] \$168 VDD sg13_lv_pmos L=0.13u W=0.3u AS=0.057p
+ AD=0.1725p PS=0.68u PD=1.75u
M$207 \$169 ON|ON[36] VDD VDD sg13_lv_pmos L=0.13u W=0.3u AS=0.1725p AD=0.057p
+ PS=1.75u PD=0.68u
M$208 VDD ONB|ONB[36] \$170 VDD sg13_lv_pmos L=0.13u W=0.3u AS=0.057p
+ AD=0.1725p PS=0.68u PD=1.75u
M$209 \$171 ON|ON[37] VDD VDD sg13_lv_pmos L=0.13u W=0.3u AS=0.1725p AD=0.057p
+ PS=1.75u PD=0.68u
M$210 VDD ONB|ONB[37] \$172 VDD sg13_lv_pmos L=0.13u W=0.3u AS=0.057p
+ AD=0.1725p PS=0.68u PD=1.75u
M$211 \$173 ON|ON[38] VDD VDD sg13_lv_pmos L=0.13u W=0.3u AS=0.1725p AD=0.057p
+ PS=1.75u PD=0.68u
M$212 VDD ONB|ONB[38] \$174 VDD sg13_lv_pmos L=0.13u W=0.3u AS=0.057p
+ AD=0.1725p PS=0.68u PD=1.75u
M$213 \$175 ON|ON[39] VDD VDD sg13_lv_pmos L=0.13u W=0.3u AS=0.1725p AD=0.057p
+ PS=1.75u PD=0.68u
M$214 VDD ONB|ONB[39] \$176 VDD sg13_lv_pmos L=0.13u W=0.3u AS=0.057p
+ AD=0.1725p PS=0.68u PD=1.75u
M$215 \$177 ON|ON[40] VDD VDD sg13_lv_pmos L=0.13u W=0.3u AS=0.1725p AD=0.057p
+ PS=1.75u PD=0.68u
M$216 VDD ONB|ONB[40] \$178 VDD sg13_lv_pmos L=0.13u W=0.3u AS=0.057p
+ AD=0.1725p PS=0.68u PD=1.75u
M$217 \$179 ON|ON[41] VDD VDD sg13_lv_pmos L=0.13u W=0.3u AS=0.1725p AD=0.057p
+ PS=1.75u PD=0.68u
M$218 VDD ONB|ONB[41] \$180 VDD sg13_lv_pmos L=0.13u W=0.3u AS=0.057p
+ AD=0.1725p PS=0.68u PD=1.75u
M$219 \$181 ON|ON[42] VDD VDD sg13_lv_pmos L=0.13u W=0.3u AS=0.1725p AD=0.057p
+ PS=1.75u PD=0.68u
M$220 VDD ONB|ONB[42] \$182 VDD sg13_lv_pmos L=0.13u W=0.3u AS=0.057p
+ AD=0.1725p PS=0.68u PD=1.75u
M$221 \$183 ON|ON[43] VDD VDD sg13_lv_pmos L=0.13u W=0.3u AS=0.1725p AD=0.057p
+ PS=1.75u PD=0.68u
M$222 VDD ONB|ONB[43] \$184 VDD sg13_lv_pmos L=0.13u W=0.3u AS=0.057p
+ AD=0.1725p PS=0.68u PD=1.75u
M$223 \$185 ON|ON[44] VDD VDD sg13_lv_pmos L=0.13u W=0.3u AS=0.1725p AD=0.057p
+ PS=1.75u PD=0.68u
M$224 VDD ONB|ONB[44] \$186 VDD sg13_lv_pmos L=0.13u W=0.3u AS=0.057p
+ AD=0.1725p PS=0.68u PD=1.75u
M$225 \$187 ON|ON[45] VDD VDD sg13_lv_pmos L=0.13u W=0.3u AS=0.1725p AD=0.057p
+ PS=1.75u PD=0.68u
M$226 VDD ONB|ONB[45] \$188 VDD sg13_lv_pmos L=0.13u W=0.3u AS=0.057p
+ AD=0.1725p PS=0.68u PD=1.75u
M$227 \$189 ON|ON[46] VDD VDD sg13_lv_pmos L=0.13u W=0.3u AS=0.1725p AD=0.057p
+ PS=1.75u PD=0.68u
M$228 VDD ONB|ONB[46] \$190 VDD sg13_lv_pmos L=0.13u W=0.3u AS=0.057p
+ AD=0.1725p PS=0.68u PD=1.75u
M$229 \$191 ON|ON[47] VDD VDD sg13_lv_pmos L=0.13u W=0.3u AS=0.1725p AD=0.057p
+ PS=1.75u PD=0.68u
M$230 VDD ONB|ONB[47] \$192 VDD sg13_lv_pmos L=0.13u W=0.3u AS=0.057p
+ AD=0.1725p PS=0.68u PD=1.75u
M$231 \$193 ON|ON[48] VDD VDD sg13_lv_pmos L=0.13u W=0.3u AS=0.1725p AD=0.057p
+ PS=1.75u PD=0.68u
M$232 VDD ONB|ONB[48] \$194 VDD sg13_lv_pmos L=0.13u W=0.3u AS=0.057p
+ AD=0.1725p PS=0.68u PD=1.75u
M$233 \$195 ON|ON[49] VDD VDD sg13_lv_pmos L=0.13u W=0.3u AS=0.1725p AD=0.057p
+ PS=1.75u PD=0.68u
M$234 VDD ONB|ONB[49] \$196 VDD sg13_lv_pmos L=0.13u W=0.3u AS=0.057p
+ AD=0.1725p PS=0.68u PD=1.75u
M$235 \$197 ON|ON[50] VDD VDD sg13_lv_pmos L=0.13u W=0.3u AS=0.1725p AD=0.057p
+ PS=1.75u PD=0.68u
M$236 VDD ONB|ONB[50] \$198 VDD sg13_lv_pmos L=0.13u W=0.3u AS=0.057p
+ AD=0.1725p PS=0.68u PD=1.75u
M$237 \$199 ON|ON[51] VDD VDD sg13_lv_pmos L=0.13u W=0.3u AS=0.1725p AD=0.057p
+ PS=1.75u PD=0.68u
M$238 VDD ONB|ONB[51] \$200 VDD sg13_lv_pmos L=0.13u W=0.3u AS=0.057p
+ AD=0.1725p PS=0.68u PD=1.75u
M$239 \$201 ON|ON[52] VDD VDD sg13_lv_pmos L=0.13u W=0.3u AS=0.1725p AD=0.057p
+ PS=1.75u PD=0.68u
M$240 VDD ONB|ONB[52] \$202 VDD sg13_lv_pmos L=0.13u W=0.3u AS=0.057p
+ AD=0.1725p PS=0.68u PD=1.75u
M$241 \$203 ON|ON[53] VDD VDD sg13_lv_pmos L=0.13u W=0.3u AS=0.1725p AD=0.057p
+ PS=1.75u PD=0.68u
M$242 VDD ONB|ONB[53] \$204 VDD sg13_lv_pmos L=0.13u W=0.3u AS=0.057p
+ AD=0.1725p PS=0.68u PD=1.75u
M$243 \$205 ON|ON[54] VDD VDD sg13_lv_pmos L=0.13u W=0.3u AS=0.1725p AD=0.057p
+ PS=1.75u PD=0.68u
M$244 VDD ONB|ONB[54] \$206 VDD sg13_lv_pmos L=0.13u W=0.3u AS=0.057p
+ AD=0.1725p PS=0.68u PD=1.75u
M$245 \$207 ON|ON[55] VDD VDD sg13_lv_pmos L=0.13u W=0.3u AS=0.1725p AD=0.057p
+ PS=1.75u PD=0.68u
M$246 VDD ONB|ONB[55] \$208 VDD sg13_lv_pmos L=0.13u W=0.3u AS=0.057p
+ AD=0.1725p PS=0.68u PD=1.75u
M$247 \$209 ON|ON[56] VDD VDD sg13_lv_pmos L=0.13u W=0.3u AS=0.1725p AD=0.057p
+ PS=1.75u PD=0.68u
M$248 VDD ONB|ONB[56] \$210 VDD sg13_lv_pmos L=0.13u W=0.3u AS=0.057p
+ AD=0.1725p PS=0.68u PD=1.75u
M$249 \$211 ON|ON[57] VDD VDD sg13_lv_pmos L=0.13u W=0.3u AS=0.1725p AD=0.057p
+ PS=1.75u PD=0.68u
M$250 VDD ONB|ONB[57] \$212 VDD sg13_lv_pmos L=0.13u W=0.3u AS=0.057p
+ AD=0.1725p PS=0.68u PD=1.75u
M$251 \$213 ON|ON[58] VDD VDD sg13_lv_pmos L=0.13u W=0.3u AS=0.1725p AD=0.057p
+ PS=1.75u PD=0.68u
M$252 VDD ONB|ONB[58] \$214 VDD sg13_lv_pmos L=0.13u W=0.3u AS=0.057p
+ AD=0.1725p PS=0.68u PD=1.75u
M$253 \$215 ON|ON[59] VDD VDD sg13_lv_pmos L=0.13u W=0.3u AS=0.1725p AD=0.057p
+ PS=1.75u PD=0.68u
M$254 VDD ONB|ONB[59] \$216 VDD sg13_lv_pmos L=0.13u W=0.3u AS=0.057p
+ AD=0.1725p PS=0.68u PD=1.75u
M$255 \$217 ON|ON[60] VDD VDD sg13_lv_pmos L=0.13u W=0.3u AS=0.1725p AD=0.057p
+ PS=1.75u PD=0.68u
M$256 VDD ONB|ONB[60] \$218 VDD sg13_lv_pmos L=0.13u W=0.3u AS=0.057p
+ AD=0.1725p PS=0.68u PD=1.75u
M$257 \$219 ON|ON[61] VDD VDD sg13_lv_pmos L=0.13u W=0.3u AS=0.1725p AD=0.057p
+ PS=1.75u PD=0.68u
M$258 VDD ONB|ONB[61] \$220 VDD sg13_lv_pmos L=0.13u W=0.3u AS=0.057p
+ AD=0.1725p PS=0.68u PD=1.75u
M$259 \$221 ON|ON[62] VDD VDD sg13_lv_pmos L=0.13u W=0.3u AS=0.1725p AD=0.057p
+ PS=1.75u PD=0.68u
M$260 VDD ONB|ONB[62] \$222 VDD sg13_lv_pmos L=0.13u W=0.3u AS=0.057p
+ AD=0.1725p PS=0.68u PD=1.75u
M$261 \$223 ON|ON[63] VDD VDD sg13_lv_pmos L=0.13u W=0.3u AS=0.1725p AD=0.057p
+ PS=1.75u PD=0.68u
M$262 VDD ONB|ONB[63] \$224 VDD sg13_lv_pmos L=0.13u W=0.3u AS=0.057p
+ AD=0.1725p PS=0.68u PD=1.75u
M$263 \$225 EN[1]|ON VDD VDD sg13_lv_pmos L=0.13u W=0.3u AS=0.1725p AD=0.057p
+ PS=1.75u PD=0.68u
M$264 VDD ENB[1]|ONB \$226 VDD sg13_lv_pmos L=0.13u W=0.3u AS=0.057p AD=0.1725p
+ PS=0.68u PD=1.75u
M$265 VcascP \$95 \$268 VDD sg13_lv_pmos L=0.13u W=0.3u AS=0.102p AD=0.057p
+ PS=1.28u PD=0.68u
M$266 \$268 \$96 VDD VDD sg13_lv_pmos L=0.13u W=0.3u AS=0.057p AD=0.102p
+ PS=0.68u PD=1.28u
M$267 VcascP \$97 \$269 VDD sg13_lv_pmos L=0.13u W=0.3u AS=0.102p AD=0.057p
+ PS=1.28u PD=0.68u
M$268 \$269 \$98 VDD VDD sg13_lv_pmos L=0.13u W=0.3u AS=0.057p AD=0.102p
+ PS=0.68u PD=1.28u
M$269 VcascP \$99 \$270 VDD sg13_lv_pmos L=0.13u W=0.3u AS=0.102p AD=0.057p
+ PS=1.28u PD=0.68u
M$270 \$270 \$100 VDD VDD sg13_lv_pmos L=0.13u W=0.3u AS=0.057p AD=0.102p
+ PS=0.68u PD=1.28u
M$271 VcascP \$101 \$271 VDD sg13_lv_pmos L=0.13u W=0.3u AS=0.102p AD=0.057p
+ PS=1.28u PD=0.68u
M$272 \$271 \$102 VDD VDD sg13_lv_pmos L=0.13u W=0.3u AS=0.057p AD=0.102p
+ PS=0.68u PD=1.28u
M$273 VcascP \$103 \$272 VDD sg13_lv_pmos L=0.13u W=0.3u AS=0.102p AD=0.057p
+ PS=1.28u PD=0.68u
M$274 \$272 \$104 VDD VDD sg13_lv_pmos L=0.13u W=0.3u AS=0.057p AD=0.102p
+ PS=0.68u PD=1.28u
M$275 VcascP \$105 \$273 VDD sg13_lv_pmos L=0.13u W=0.3u AS=0.102p AD=0.057p
+ PS=1.28u PD=0.68u
M$276 \$273 \$106 VDD VDD sg13_lv_pmos L=0.13u W=0.3u AS=0.057p AD=0.102p
+ PS=0.68u PD=1.28u
M$277 VcascP \$107 \$274 VDD sg13_lv_pmos L=0.13u W=0.3u AS=0.102p AD=0.057p
+ PS=1.28u PD=0.68u
M$278 \$274 \$108 VDD VDD sg13_lv_pmos L=0.13u W=0.3u AS=0.057p AD=0.102p
+ PS=0.68u PD=1.28u
M$279 VcascP \$109 \$275 VDD sg13_lv_pmos L=0.13u W=0.3u AS=0.102p AD=0.057p
+ PS=1.28u PD=0.68u
M$280 \$275 \$110 VDD VDD sg13_lv_pmos L=0.13u W=0.3u AS=0.057p AD=0.102p
+ PS=0.68u PD=1.28u
M$281 VcascP \$111 \$276 VDD sg13_lv_pmos L=0.13u W=0.3u AS=0.102p AD=0.057p
+ PS=1.28u PD=0.68u
M$282 \$276 \$112 VDD VDD sg13_lv_pmos L=0.13u W=0.3u AS=0.057p AD=0.102p
+ PS=0.68u PD=1.28u
M$283 VcascP \$113 \$277 VDD sg13_lv_pmos L=0.13u W=0.3u AS=0.102p AD=0.057p
+ PS=1.28u PD=0.68u
M$284 \$277 \$114 VDD VDD sg13_lv_pmos L=0.13u W=0.3u AS=0.057p AD=0.102p
+ PS=0.68u PD=1.28u
M$285 VcascP \$115 \$278 VDD sg13_lv_pmos L=0.13u W=0.3u AS=0.102p AD=0.057p
+ PS=1.28u PD=0.68u
M$286 \$278 \$116 VDD VDD sg13_lv_pmos L=0.13u W=0.3u AS=0.057p AD=0.102p
+ PS=0.68u PD=1.28u
M$287 VcascP \$117 \$279 VDD sg13_lv_pmos L=0.13u W=0.3u AS=0.102p AD=0.057p
+ PS=1.28u PD=0.68u
M$288 \$279 \$118 VDD VDD sg13_lv_pmos L=0.13u W=0.3u AS=0.057p AD=0.102p
+ PS=0.68u PD=1.28u
M$289 VcascP \$119 \$280 VDD sg13_lv_pmos L=0.13u W=0.3u AS=0.102p AD=0.057p
+ PS=1.28u PD=0.68u
M$290 \$280 \$120 VDD VDD sg13_lv_pmos L=0.13u W=0.3u AS=0.057p AD=0.102p
+ PS=0.68u PD=1.28u
M$291 VcascP \$121 \$281 VDD sg13_lv_pmos L=0.13u W=0.3u AS=0.102p AD=0.057p
+ PS=1.28u PD=0.68u
M$292 \$281 \$122 VDD VDD sg13_lv_pmos L=0.13u W=0.3u AS=0.057p AD=0.102p
+ PS=0.68u PD=1.28u