* Extracted by KLayout with SG13G2 LVS runset on : 12/03/2026 19:29

.SUBCKT dac32module VSS EN[0]|INP|ON ENB[0]|INN|ONB INP|ON|ON[0] INN|ONB|ONB[0]
+ INP|ON|ON[1] INN|ONB|ONB[1] INP|ON|ON[2] INN|ONB|ONB[2] INP|ON|ON[3]
+ INN|ONB|ONB[3] VDD INP|ON|ON[4] INN|ONB|ONB[4] INP|ON|ON[5] INN|ONB|ONB[5]
+ INP|ON|ON[6] INN|ONB|ONB[6] INP|ON|ON[7] INN|ONB|ONB[7] INP|ON|ON[8]
+ INN|ONB|ONB[8] INP|ON|ON[9] INN|ONB|ONB[9] INP|ON|ON[10] INN|ONB|ONB[10]
+ INP|ON|ON[11] INN|ONB|ONB[11] INP|ON|ON[12] INN|ONB|ONB[12] INP|ON|ON[13]
+ INN|ONB|ONB[13] INP|ON|ON[14] INN|ONB|ONB[14] INP|ON|ON[15] INN|ONB|ONB[15]
+ EN[1]|INP|ON ENB[1]|INN|ONB OUTN OUTP OUTN$1 OUTP$1 OUTN$2 OUTP$2 OUTN$3
+ OUTP$3 OUTN$4 OUTP$4 OUTN$5 OUTP$5 OUTN$6 OUTP$6 OUTN$7 OUTP$7 OUTN$8 OUTP$8
+ OUTN$9 OUTP$9 OUTN$10 OUTP$10 OUTN$11 OUTP$11 OUTN$12 OUTP$12 OUTN$13 OUTP$13
+ OUTN$14 OUTP$14 OUTN$15 OUTP$15 OUTN$16 OUTP$16 OUTN$17 OUTP$17
+ VcascP|VcascP[0] VcascodeP VcascodeP$1 VcascodeP$2 VcascodeP$3 VcascodeP$4
+ VcascodeP$5 VcascodeP$6 VcascodeP$7 VcascodeP$8 VcascodeP$9 VcascodeP$10
+ VcascodeP$11 VcascodeP$12 VcascodeP$13 VcascodeP$14 VcascodeP$15 VcascodeP$16
+ VcascodeP$17 Iout|VbiasP|VbiasP[0] Iout Iout|VbiasP|VbiasP[1]
+ VcascP|VcascP[1] VcascodeP$18 VcascodeP$19 VcascodeP$20 VcascodeP$21
+ VcascodeP$22 VcascodeP$23 VcascodeP$24 VcascodeP$25 VcascodeP$26 VcascodeP$27
+ VcascodeP$28 VcascodeP$29 VcascodeP$30 VcascodeP$31 VcascodeP$32 VcascodeP$33
+ VcascodeP$34 VcascodeP$35 OUTP$18 OUTN$18 OUTP$19 OUTN$19 OUTP$20 OUTN$20
+ OUTP$21 OUTN$21 OUTP$22 OUTN$22 OUTP$23 OUTN$23 OUTP$24 OUTN$24 OUTP$25
+ OUTN$25 OUTP$26 OUTN$26 OUTP$27 OUTN$27 OUTP$28 OUTN$28 OUTP$29 OUTN$29
+ OUTP$30 OUTN$30 OUTP$31 OUTN$31 OUTP$32 OUTN$32 OUTP$33 OUTN$33 OUTP$34
+ OUTN$34 OUTP$35 OUTN$35 ENB[1]|ENB[3]|INN|ONB EN[1]|EN[3]|INP|ON
+ INN|ONB|ONB[15]|ONB[31] INP|ON|ON[15]|ON[31] INN|ONB|ONB[14]|ONB[30]
+ INP|ON|ON[14]|ON[30] INN|ONB|ONB[13]|ONB[29] INP|ON|ON[13]|ON[29]
+ INN|ONB|ONB[12]|ONB[28] INP|ON|ON[12]|ON[28] INN|ONB|ONB[11]|ONB[27]
+ INP|ON|ON[11]|ON[27] INN|ONB|ONB[10]|ONB[26] INP|ON|ON[10]|ON[26]
+ INN|ONB|ONB[25]|ONB[9] INP|ON|ON[25]|ON[9] INN|ONB|ONB[24]|ONB[8]
+ INP|ON|ON[24]|ON[8] INN|ONB|ONB[23]|ONB[7] INP|ON|ON[23]|ON[7]
+ INN|ONB|ONB[22]|ONB[6] INP|ON|ON[22]|ON[6] INN|ONB|ONB[21]|ONB[5]
+ INP|ON|ON[21]|ON[5] INN|ONB|ONB[20]|ONB[4] INP|ON|ON[20]|ON[4]
+ INN|ONB|ONB[19]|ONB[3] INP|ON|ON[19]|ON[3] INN|ONB|ONB[18]|ONB[2]
+ INP|ON|ON[18]|ON[2] INN|ONB|ONB[17]|ONB[1] INP|ON|ON[17]|ON[1]
+ INN|ONB|ONB[0]|ONB[16] INP|ON|ON[0]|ON[16] ENB[0]|ENB[2]|INN|ONB
+ EN[0]|EN[2]|INP|ON
M$1 OUTP$18 OUTN$18 VSS VSS sg13_lv_nmos L=0.52u W=0.15u AS=0.162p AD=0.0855p
+ PS=2.16u PD=1.14u
M$2 VSS OUTP$18 OUTN$18 VSS sg13_lv_nmos L=0.52u W=0.15u AS=0.0855p AD=0.162p
+ PS=1.14u PD=2.16u
M$3 OUTN OUTP VSS VSS sg13_lv_nmos L=0.52u W=0.15u AS=0.162p AD=0.0855p
+ PS=2.16u PD=1.14u
M$4 VSS OUTN OUTP VSS sg13_lv_nmos L=0.52u W=0.15u AS=0.0855p AD=0.162p
+ PS=1.14u PD=2.16u
M$5 OUTP$19 OUTN$19 VSS VSS sg13_lv_nmos L=0.52u W=0.15u AS=0.162p AD=0.0855p
+ PS=2.16u PD=1.14u
M$6 VSS OUTP$19 OUTN$19 VSS sg13_lv_nmos L=0.52u W=0.15u AS=0.0855p AD=0.162p
+ PS=1.14u PD=2.16u
M$7 OUTN$1 OUTP$1 VSS VSS sg13_lv_nmos L=0.52u W=0.15u AS=0.162p AD=0.0855p
+ PS=2.16u PD=1.14u
M$8 VSS OUTN$1 OUTP$1 VSS sg13_lv_nmos L=0.52u W=0.15u AS=0.0855p AD=0.162p
+ PS=1.14u PD=2.16u
M$9 OUTN$2 OUTP$2 VSS VSS sg13_lv_nmos L=0.52u W=0.15u AS=0.162p AD=0.0855p
+ PS=2.16u PD=1.14u
M$10 VSS OUTN$2 OUTP$2 VSS sg13_lv_nmos L=0.52u W=0.15u AS=0.0855p AD=0.162p
+ PS=1.14u PD=2.16u
M$11 OUTP$20 OUTN$20 VSS VSS sg13_lv_nmos L=0.52u W=0.15u AS=0.162p AD=0.0855p
+ PS=2.16u PD=1.14u
M$12 VSS OUTP$20 OUTN$20 VSS sg13_lv_nmos L=0.52u W=0.15u AS=0.0855p AD=0.162p
+ PS=1.14u PD=2.16u
M$13 OUTP$21 OUTN$21 VSS VSS sg13_lv_nmos L=0.52u W=0.15u AS=0.162p AD=0.0855p
+ PS=2.16u PD=1.14u
M$14 VSS OUTP$21 OUTN$21 VSS sg13_lv_nmos L=0.52u W=0.15u AS=0.0855p AD=0.162p
+ PS=1.14u PD=2.16u
M$15 OUTN$3 OUTP$3 VSS VSS sg13_lv_nmos L=0.52u W=0.15u AS=0.162p AD=0.0855p
+ PS=2.16u PD=1.14u
M$16 VSS OUTN$3 OUTP$3 VSS sg13_lv_nmos L=0.52u W=0.15u AS=0.0855p AD=0.162p
+ PS=1.14u PD=2.16u
M$17 OUTP$22 OUTN$22 VSS VSS sg13_lv_nmos L=0.52u W=0.15u AS=0.162p AD=0.0855p
+ PS=2.16u PD=1.14u
M$18 VSS OUTP$22 OUTN$22 VSS sg13_lv_nmos L=0.52u W=0.15u AS=0.0855p AD=0.162p
+ PS=1.14u PD=2.16u
M$19 OUTN$4 OUTP$4 VSS VSS sg13_lv_nmos L=0.52u W=0.15u AS=0.162p AD=0.0855p
+ PS=2.16u PD=1.14u
M$20 VSS OUTN$4 OUTP$4 VSS sg13_lv_nmos L=0.52u W=0.15u AS=0.0855p AD=0.162p
+ PS=1.14u PD=2.16u
M$21 OUTP$23 OUTN$23 VSS VSS sg13_lv_nmos L=0.52u W=0.15u AS=0.162p AD=0.0855p
+ PS=2.16u PD=1.14u
M$22 VSS OUTP$23 OUTN$23 VSS sg13_lv_nmos L=0.52u W=0.15u AS=0.0855p AD=0.162p
+ PS=1.14u PD=2.16u
M$23 OUTN$5 OUTP$5 VSS VSS sg13_lv_nmos L=0.52u W=0.15u AS=0.162p AD=0.0855p
+ PS=2.16u PD=1.14u
M$24 VSS OUTN$5 OUTP$5 VSS sg13_lv_nmos L=0.52u W=0.15u AS=0.0855p AD=0.162p
+ PS=1.14u PD=2.16u
M$25 OUTP$24 OUTN$24 VSS VSS sg13_lv_nmos L=0.52u W=0.15u AS=0.162p AD=0.0855p
+ PS=2.16u PD=1.14u
M$26 VSS OUTP$24 OUTN$24 VSS sg13_lv_nmos L=0.52u W=0.15u AS=0.0855p AD=0.162p
+ PS=1.14u PD=2.16u
M$27 OUTN$6 OUTP$6 VSS VSS sg13_lv_nmos L=0.52u W=0.15u AS=0.162p AD=0.0855p
+ PS=2.16u PD=1.14u
M$28 VSS OUTN$6 OUTP$6 VSS sg13_lv_nmos L=0.52u W=0.15u AS=0.0855p AD=0.162p
+ PS=1.14u PD=2.16u
M$29 OUTP$25 OUTN$25 VSS VSS sg13_lv_nmos L=0.52u W=0.15u AS=0.162p AD=0.0855p
+ PS=2.16u PD=1.14u
M$30 VSS OUTP$25 OUTN$25 VSS sg13_lv_nmos L=0.52u W=0.15u AS=0.0855p AD=0.162p
+ PS=1.14u PD=2.16u
M$31 OUTN$7 OUTP$7 VSS VSS sg13_lv_nmos L=0.52u W=0.15u AS=0.162p AD=0.0855p
+ PS=2.16u PD=1.14u
M$32 VSS OUTN$7 OUTP$7 VSS sg13_lv_nmos L=0.52u W=0.15u AS=0.0855p AD=0.162p
+ PS=1.14u PD=2.16u
M$33 OUTP$26 OUTN$26 VSS VSS sg13_lv_nmos L=0.52u W=0.15u AS=0.162p AD=0.0855p
+ PS=2.16u PD=1.14u
M$34 VSS OUTP$26 OUTN$26 VSS sg13_lv_nmos L=0.52u W=0.15u AS=0.0855p AD=0.162p
+ PS=1.14u PD=2.16u
M$35 OUTN$8 OUTP$8 VSS VSS sg13_lv_nmos L=0.52u W=0.15u AS=0.162p AD=0.0855p
+ PS=2.16u PD=1.14u
M$36 VSS OUTN$8 OUTP$8 VSS sg13_lv_nmos L=0.52u W=0.15u AS=0.0855p AD=0.162p
+ PS=1.14u PD=2.16u
M$37 OUTP$27 OUTN$27 VSS VSS sg13_lv_nmos L=0.52u W=0.15u AS=0.162p AD=0.0855p
+ PS=2.16u PD=1.14u
M$38 VSS OUTP$27 OUTN$27 VSS sg13_lv_nmos L=0.52u W=0.15u AS=0.0855p AD=0.162p
+ PS=1.14u PD=2.16u
M$39 OUTN$9 OUTP$9 VSS VSS sg13_lv_nmos L=0.52u W=0.15u AS=0.162p AD=0.0855p
+ PS=2.16u PD=1.14u
M$40 VSS OUTN$9 OUTP$9 VSS sg13_lv_nmos L=0.52u W=0.15u AS=0.0855p AD=0.162p
+ PS=1.14u PD=2.16u
M$41 OUTN$10 OUTP$10 VSS VSS sg13_lv_nmos L=0.52u W=0.15u AS=0.162p AD=0.0855p
+ PS=2.16u PD=1.14u
M$42 VSS OUTN$10 OUTP$10 VSS sg13_lv_nmos L=0.52u W=0.15u AS=0.0855p AD=0.162p
+ PS=1.14u PD=2.16u
M$43 OUTP$28 OUTN$28 VSS VSS sg13_lv_nmos L=0.52u W=0.15u AS=0.162p AD=0.0855p
+ PS=2.16u PD=1.14u
M$44 VSS OUTP$28 OUTN$28 VSS sg13_lv_nmos L=0.52u W=0.15u AS=0.0855p AD=0.162p
+ PS=1.14u PD=2.16u
M$45 OUTP$29 OUTN$29 VSS VSS sg13_lv_nmos L=0.52u W=0.15u AS=0.162p AD=0.0855p
+ PS=2.16u PD=1.14u
M$46 VSS OUTP$29 OUTN$29 VSS sg13_lv_nmos L=0.52u W=0.15u AS=0.0855p AD=0.162p
+ PS=1.14u PD=2.16u
M$47 OUTN$11 OUTP$11 VSS VSS sg13_lv_nmos L=0.52u W=0.15u AS=0.162p AD=0.0855p
+ PS=2.16u PD=1.14u
M$48 VSS OUTN$11 OUTP$11 VSS sg13_lv_nmos L=0.52u W=0.15u AS=0.0855p AD=0.162p
+ PS=1.14u PD=2.16u
M$49 OUTN$12 OUTP$12 VSS VSS sg13_lv_nmos L=0.52u W=0.15u AS=0.162p AD=0.0855p
+ PS=2.16u PD=1.14u
M$50 VSS OUTN$12 OUTP$12 VSS sg13_lv_nmos L=0.52u W=0.15u AS=0.0855p AD=0.162p
+ PS=1.14u PD=2.16u
M$51 OUTP$30 OUTN$30 VSS VSS sg13_lv_nmos L=0.52u W=0.15u AS=0.162p AD=0.0855p
+ PS=2.16u PD=1.14u
M$52 VSS OUTP$30 OUTN$30 VSS sg13_lv_nmos L=0.52u W=0.15u AS=0.0855p AD=0.162p
+ PS=1.14u PD=2.16u
M$53 OUTN$13 OUTP$13 VSS VSS sg13_lv_nmos L=0.52u W=0.15u AS=0.162p AD=0.0855p
+ PS=2.16u PD=1.14u
M$54 VSS OUTN$13 OUTP$13 VSS sg13_lv_nmos L=0.52u W=0.15u AS=0.0855p AD=0.162p
+ PS=1.14u PD=2.16u
M$55 OUTP$31 OUTN$31 VSS VSS sg13_lv_nmos L=0.52u W=0.15u AS=0.162p AD=0.0855p
+ PS=2.16u PD=1.14u
M$56 VSS OUTP$31 OUTN$31 VSS sg13_lv_nmos L=0.52u W=0.15u AS=0.0855p AD=0.162p
+ PS=1.14u PD=2.16u
M$57 OUTP$32 OUTN$32 VSS VSS sg13_lv_nmos L=0.52u W=0.15u AS=0.162p AD=0.0855p
+ PS=2.16u PD=1.14u
M$58 VSS OUTP$32 OUTN$32 VSS sg13_lv_nmos L=0.52u W=0.15u AS=0.0855p AD=0.162p
+ PS=1.14u PD=2.16u
M$59 OUTN$14 OUTP$14 VSS VSS sg13_lv_nmos L=0.52u W=0.15u AS=0.162p AD=0.0855p
+ PS=2.16u PD=1.14u
M$60 VSS OUTN$14 OUTP$14 VSS sg13_lv_nmos L=0.52u W=0.15u AS=0.0855p AD=0.162p
+ PS=1.14u PD=2.16u
M$61 OUTN$15 OUTP$15 VSS VSS sg13_lv_nmos L=0.52u W=0.15u AS=0.162p AD=0.0855p
+ PS=2.16u PD=1.14u
M$62 VSS OUTN$15 OUTP$15 VSS sg13_lv_nmos L=0.52u W=0.15u AS=0.0855p AD=0.162p
+ PS=1.14u PD=2.16u
M$63 OUTP$33 OUTN$33 VSS VSS sg13_lv_nmos L=0.52u W=0.15u AS=0.162p AD=0.0855p
+ PS=2.16u PD=1.14u
M$64 VSS OUTP$33 OUTN$33 VSS sg13_lv_nmos L=0.52u W=0.15u AS=0.0855p AD=0.162p
+ PS=1.14u PD=2.16u
M$65 OUTP$34 OUTN$34 VSS VSS sg13_lv_nmos L=0.52u W=0.15u AS=0.162p AD=0.0855p
+ PS=2.16u PD=1.14u
M$66 VSS OUTP$34 OUTN$34 VSS sg13_lv_nmos L=0.52u W=0.15u AS=0.0855p AD=0.162p
+ PS=1.14u PD=2.16u
M$67 OUTN$16 OUTP$16 VSS VSS sg13_lv_nmos L=0.52u W=0.15u AS=0.162p AD=0.0855p
+ PS=2.16u PD=1.14u
M$68 VSS OUTN$16 OUTP$16 VSS sg13_lv_nmos L=0.52u W=0.15u AS=0.0855p AD=0.162p
+ PS=1.14u PD=2.16u
M$69 OUTN$17 OUTP$17 VSS VSS sg13_lv_nmos L=0.52u W=0.15u AS=0.162p AD=0.0855p
+ PS=2.16u PD=1.14u
M$70 VSS OUTN$17 OUTP$17 VSS sg13_lv_nmos L=0.52u W=0.15u AS=0.0855p AD=0.162p
+ PS=1.14u PD=2.16u
M$71 OUTP$35 OUTN$35 VSS VSS sg13_lv_nmos L=0.52u W=0.15u AS=0.162p AD=0.0855p
+ PS=2.16u PD=1.14u
M$72 VSS OUTP$35 OUTN$35 VSS sg13_lv_nmos L=0.52u W=0.15u AS=0.0855p AD=0.162p
+ PS=1.14u PD=2.16u
M$73 OUTN EN[0]|INP|ON VDD VDD sg13_lv_pmos L=0.13u W=0.3u AS=0.1725p AD=0.057p
+ PS=1.75u PD=0.68u
M$74 VDD ENB[0]|INN|ONB OUTP VDD sg13_lv_pmos L=0.13u W=0.3u AS=0.057p
+ AD=0.1725p PS=0.68u PD=1.75u
M$75 OUTN$1 INP|ON|ON[0] VDD VDD sg13_lv_pmos L=0.13u W=0.3u AS=0.1725p
+ AD=0.057p PS=1.75u PD=0.68u
M$76 VDD INN|ONB|ONB[0] OUTP$1 VDD sg13_lv_pmos L=0.13u W=0.3u AS=0.057p
+ AD=0.1725p PS=0.68u PD=1.75u
M$77 OUTN$2 INP|ON|ON[1] VDD VDD sg13_lv_pmos L=0.13u W=0.3u AS=0.1725p
+ AD=0.057p PS=1.75u PD=0.68u
M$78 VDD INN|ONB|ONB[1] OUTP$2 VDD sg13_lv_pmos L=0.13u W=0.3u AS=0.057p
+ AD=0.1725p PS=0.68u PD=1.75u
M$79 OUTN$3 INP|ON|ON[2] VDD VDD sg13_lv_pmos L=0.13u W=0.3u AS=0.1725p
+ AD=0.057p PS=1.75u PD=0.68u
M$80 VDD INN|ONB|ONB[2] OUTP$3 VDD sg13_lv_pmos L=0.13u W=0.3u AS=0.057p
+ AD=0.1725p PS=0.68u PD=1.75u
M$81 OUTN$4 INP|ON|ON[3] VDD VDD sg13_lv_pmos L=0.13u W=0.3u AS=0.1725p
+ AD=0.057p PS=1.75u PD=0.68u
M$82 VDD INN|ONB|ONB[3] OUTP$4 VDD sg13_lv_pmos L=0.13u W=0.3u AS=0.057p
+ AD=0.1725p PS=0.68u PD=1.75u
M$83 OUTN$5 INP|ON|ON[4] VDD VDD sg13_lv_pmos L=0.13u W=0.3u AS=0.1725p
+ AD=0.057p PS=1.75u PD=0.68u
M$84 VDD INN|ONB|ONB[4] OUTP$5 VDD sg13_lv_pmos L=0.13u W=0.3u AS=0.057p
+ AD=0.1725p PS=0.68u PD=1.75u
M$85 OUTN$6 INP|ON|ON[5] VDD VDD sg13_lv_pmos L=0.13u W=0.3u AS=0.1725p
+ AD=0.057p PS=1.75u PD=0.68u
M$86 VDD INN|ONB|ONB[5] OUTP$6 VDD sg13_lv_pmos L=0.13u W=0.3u AS=0.057p
+ AD=0.1725p PS=0.68u PD=1.75u
M$87 OUTN$7 INP|ON|ON[6] VDD VDD sg13_lv_pmos L=0.13u W=0.3u AS=0.1725p
+ AD=0.057p PS=1.75u PD=0.68u
M$88 VDD INN|ONB|ONB[6] OUTP$7 VDD sg13_lv_pmos L=0.13u W=0.3u AS=0.057p
+ AD=0.1725p PS=0.68u PD=1.75u
M$89 OUTN$8 INP|ON|ON[7] VDD VDD sg13_lv_pmos L=0.13u W=0.3u AS=0.1725p
+ AD=0.057p PS=1.75u PD=0.68u
M$90 VDD INN|ONB|ONB[7] OUTP$8 VDD sg13_lv_pmos L=0.13u W=0.3u AS=0.057p
+ AD=0.1725p PS=0.68u PD=1.75u
M$91 OUTN$9 INP|ON|ON[8] VDD VDD sg13_lv_pmos L=0.13u W=0.3u AS=0.1725p
+ AD=0.057p PS=1.75u PD=0.68u
M$92 VDD INN|ONB|ONB[8] OUTP$9 VDD sg13_lv_pmos L=0.13u W=0.3u AS=0.057p
+ AD=0.1725p PS=0.68u PD=1.75u
M$93 OUTN$10 INP|ON|ON[9] VDD VDD sg13_lv_pmos L=0.13u W=0.3u AS=0.1725p
+ AD=0.057p PS=1.75u PD=0.68u
M$94 VDD INN|ONB|ONB[9] OUTP$10 VDD sg13_lv_pmos L=0.13u W=0.3u AS=0.057p
+ AD=0.1725p PS=0.68u PD=1.75u
M$95 OUTN$11 INP|ON|ON[10] VDD VDD sg13_lv_pmos L=0.13u W=0.3u AS=0.1725p
+ AD=0.057p PS=1.75u PD=0.68u
M$96 VDD INN|ONB|ONB[10] OUTP$11 VDD sg13_lv_pmos L=0.13u W=0.3u AS=0.057p
+ AD=0.1725p PS=0.68u PD=1.75u
M$97 OUTN$12 INP|ON|ON[11] VDD VDD sg13_lv_pmos L=0.13u W=0.3u AS=0.1725p
+ AD=0.057p PS=1.75u PD=0.68u
M$98 VDD INN|ONB|ONB[11] OUTP$12 VDD sg13_lv_pmos L=0.13u W=0.3u AS=0.057p
+ AD=0.1725p PS=0.68u PD=1.75u
M$99 OUTN$13 INP|ON|ON[12] VDD VDD sg13_lv_pmos L=0.13u W=0.3u AS=0.1725p
+ AD=0.057p PS=1.75u PD=0.68u
M$100 VDD INN|ONB|ONB[12] OUTP$13 VDD sg13_lv_pmos L=0.13u W=0.3u AS=0.057p
+ AD=0.1725p PS=0.68u PD=1.75u
M$101 OUTN$14 INP|ON|ON[13] VDD VDD sg13_lv_pmos L=0.13u W=0.3u AS=0.1725p
+ AD=0.057p PS=1.75u PD=0.68u
M$102 VDD INN|ONB|ONB[13] OUTP$14 VDD sg13_lv_pmos L=0.13u W=0.3u AS=0.057p
+ AD=0.1725p PS=0.68u PD=1.75u
M$103 OUTN$15 INP|ON|ON[14] VDD VDD sg13_lv_pmos L=0.13u W=0.3u AS=0.1725p
+ AD=0.057p PS=1.75u PD=0.68u
M$104 VDD INN|ONB|ONB[14] OUTP$15 VDD sg13_lv_pmos L=0.13u W=0.3u AS=0.057p
+ AD=0.1725p PS=0.68u PD=1.75u
M$105 OUTN$16 INP|ON|ON[15] VDD VDD sg13_lv_pmos L=0.13u W=0.3u AS=0.1725p
+ AD=0.057p PS=1.75u PD=0.68u
M$106 VDD INN|ONB|ONB[15] OUTP$16 VDD sg13_lv_pmos L=0.13u W=0.3u AS=0.057p
+ AD=0.1725p PS=0.68u PD=1.75u
M$107 OUTN$17 EN[1]|INP|ON VDD VDD sg13_lv_pmos L=0.13u W=0.3u AS=0.1725p
+ AD=0.057p PS=1.75u PD=0.68u
M$108 VDD ENB[1]|INN|ONB OUTP$17 VDD sg13_lv_pmos L=0.13u W=0.3u AS=0.057p
+ AD=0.1725p PS=0.68u PD=1.75u
M$109 VcascP|VcascP[0] OUTN VcascodeP VDD sg13_lv_pmos L=0.13u W=0.3u AS=0.102p
+ AD=0.057p PS=1.28u PD=0.68u
M$110 VcascodeP OUTP VDD VDD sg13_lv_pmos L=0.13u W=0.3u AS=0.057p AD=0.102p
+ PS=0.68u PD=1.28u
M$111 VcascP|VcascP[0] OUTN$1 VcascodeP$1 VDD sg13_lv_pmos L=0.13u W=0.3u
+ AS=0.102p AD=0.057p PS=1.28u PD=0.68u
M$112 VcascodeP$1 OUTP$1 VDD VDD sg13_lv_pmos L=0.13u W=0.3u AS=0.057p
+ AD=0.102p PS=0.68u PD=1.28u
M$113 VcascP|VcascP[0] OUTN$2 VcascodeP$2 VDD sg13_lv_pmos L=0.13u W=0.3u
+ AS=0.102p AD=0.057p PS=1.28u PD=0.68u
M$114 VcascodeP$2 OUTP$2 VDD VDD sg13_lv_pmos L=0.13u W=0.3u AS=0.057p
+ AD=0.102p PS=0.68u PD=1.28u
M$115 VcascP|VcascP[0] OUTN$3 VcascodeP$3 VDD sg13_lv_pmos L=0.13u W=0.3u
+ AS=0.102p AD=0.057p PS=1.28u PD=0.68u
M$116 VcascodeP$3 OUTP$3 VDD VDD sg13_lv_pmos L=0.13u W=0.3u AS=0.057p
+ AD=0.102p PS=0.68u PD=1.28u
M$117 VcascP|VcascP[0] OUTN$4 VcascodeP$4 VDD sg13_lv_pmos L=0.13u W=0.3u
+ AS=0.102p AD=0.057p PS=1.28u PD=0.68u
M$118 VcascodeP$4 OUTP$4 VDD VDD sg13_lv_pmos L=0.13u W=0.3u AS=0.057p
+ AD=0.102p PS=0.68u PD=1.28u
M$119 VcascP|VcascP[0] OUTN$5 VcascodeP$5 VDD sg13_lv_pmos L=0.13u W=0.3u
+ AS=0.102p AD=0.057p PS=1.28u PD=0.68u
M$120 VcascodeP$5 OUTP$5 VDD VDD sg13_lv_pmos L=0.13u W=0.3u AS=0.057p
+ AD=0.102p PS=0.68u PD=1.28u
M$121 VcascP|VcascP[0] OUTN$6 VcascodeP$6 VDD sg13_lv_pmos L=0.13u W=0.3u
+ AS=0.102p AD=0.057p PS=1.28u PD=0.68u
M$122 VcascodeP$6 OUTP$6 VDD VDD sg13_lv_pmos L=0.13u W=0.3u AS=0.057p
+ AD=0.102p PS=0.68u PD=1.28u
M$123 VcascP|VcascP[0] OUTN$7 VcascodeP$7 VDD sg13_lv_pmos L=0.13u W=0.3u
+ AS=0.102p AD=0.057p PS=1.28u PD=0.68u
M$124 VcascodeP$7 OUTP$7 VDD VDD sg13_lv_pmos L=0.13u W=0.3u AS=0.057p
+ AD=0.102p PS=0.68u PD=1.28u
M$125 VcascP|VcascP[0] OUTN$8 VcascodeP$8 VDD sg13_lv_pmos L=0.13u W=0.3u
+ AS=0.102p AD=0.057p PS=1.28u PD=0.68u
M$126 VcascodeP$8 OUTP$8 VDD VDD sg13_lv_pmos L=0.13u W=0.3u AS=0.057p
+ AD=0.102p PS=0.68u PD=1.28u
M$127 VcascP|VcascP[0] OUTN$9 VcascodeP$9 VDD sg13_lv_pmos L=0.13u W=0.3u
+ AS=0.102p AD=0.057p PS=1.28u PD=0.68u
M$128 VcascodeP$9 OUTP$9 VDD VDD sg13_lv_pmos L=0.13u W=0.3u AS=0.057p
+ AD=0.102p PS=0.68u PD=1.28u
M$129 VcascP|VcascP[0] OUTN$10 VcascodeP$10 VDD sg13_lv_pmos L=0.13u W=0.3u
+ AS=0.102p AD=0.057p PS=1.28u PD=0.68u
M$130 VcascodeP$10 OUTP$10 VDD VDD sg13_lv_pmos L=0.13u W=0.3u AS=0.057p
+ AD=0.102p PS=0.68u PD=1.28u
M$131 VcascP|VcascP[0] OUTN$11 VcascodeP$11 VDD sg13_lv_pmos L=0.13u W=0.3u
+ AS=0.102p AD=0.057p PS=1.28u PD=0.68u
M$132 VcascodeP$11 OUTP$11 VDD VDD sg13_lv_pmos L=0.13u W=0.3u AS=0.057p
+ AD=0.102p PS=0.68u PD=1.28u
M$133 VcascP|VcascP[0] OUTN$12 VcascodeP$12 VDD sg13_lv_pmos L=0.13u W=0.3u
+ AS=0.102p AD=0.057p PS=1.28u PD=0.68u
M$134 VcascodeP$12 OUTP$12 VDD VDD sg13_lv_pmos L=0.13u W=0.3u AS=0.057p
+ AD=0.102p PS=0.68u PD=1.28u
M$135 VcascP|VcascP[0] OUTN$13 VcascodeP$13 VDD sg13_lv_pmos L=0.13u W=0.3u
+ AS=0.102p AD=0.057p PS=1.28u PD=0.68u
M$136 VcascodeP$13 OUTP$13 VDD VDD sg13_lv_pmos L=0.13u W=0.3u AS=0.057p
+ AD=0.102p PS=0.68u PD=1.28u
M$137 VcascP|VcascP[0] OUTN$14 VcascodeP$14 VDD sg13_lv_pmos L=0.13u W=0.3u
+ AS=0.102p AD=0.057p PS=1.28u PD=0.68u
M$138 VcascodeP$14 OUTP$14 VDD VDD sg13_lv_pmos L=0.13u W=0.3u AS=0.057p
+ AD=0.102p PS=0.68u PD=1.28u
M$139 VcascP|VcascP[0] OUTN$15 VcascodeP$15 VDD sg13_lv_pmos L=0.13u W=0.3u
+ AS=0.102p AD=0.057p PS=1.28u PD=0.68u
M$140 VcascodeP$15 OUTP$15 VDD VDD sg13_lv_pmos L=0.13u W=0.3u AS=0.057p
+ AD=0.102p PS=0.68u PD=1.28u
M$141 VcascP|VcascP[0] OUTN$16 VcascodeP$16 VDD sg13_lv_pmos L=0.13u W=0.3u
+ AS=0.102p AD=0.057p PS=1.28u PD=0.68u
M$142 VcascodeP$16 OUTP$16 VDD VDD sg13_lv_pmos L=0.13u W=0.3u AS=0.057p
+ AD=0.102p PS=0.68u PD=1.28u
M$143 VcascP|VcascP[0] OUTN$17 VcascodeP$17 VDD sg13_lv_pmos L=0.13u W=0.3u
+ AS=0.102p AD=0.057p PS=1.28u PD=0.68u
M$144 VcascodeP$17 OUTP$17 VDD VDD sg13_lv_pmos L=0.13u W=0.3u AS=0.057p
+ AD=0.102p PS=0.68u PD=1.28u
M$145 VcascP|VcascP[0] VcascP|VcascP[0] Iout|VbiasP|VbiasP[0] VDD sg13_lv_pmos
+ L=0.15u W=11.7u AS=3.978p AD=3.978p PS=24.76u PD=24.76u
M$146 VDD Iout|VbiasP|VbiasP[0] \$95 VDD sg13_lv_pmos L=5u W=1.45u AS=0.493p
+ AD=0.20875p PS=3.58u PD=1.75u
M$147 \$95 VcascodeP Iout|VbiasP|VbiasP[0] VDD sg13_lv_pmos L=0.6u W=1.2u
+ AS=0.20875p AD=0.516p PS=1.75u PD=3.26u
M$148 VDD Iout|VbiasP|VbiasP[0] \$97 VDD sg13_lv_pmos L=5u W=1.45u AS=0.493p
+ AD=0.20875p PS=3.58u PD=1.75u
M$149 \$97 VcascodeP$1 Iout VDD sg13_lv_pmos L=0.6u W=1.2u AS=0.20875p
+ AD=0.516p PS=1.75u PD=3.26u
M$150 VDD Iout|VbiasP|VbiasP[0] \$96 VDD sg13_lv_pmos L=5u W=1.45u AS=0.493p
+ AD=0.20875p PS=3.58u PD=1.75u
M$151 \$96 VcascodeP$2 Iout VDD sg13_lv_pmos L=0.6u W=1.2u AS=0.20875p
+ AD=0.516p PS=1.75u PD=3.26u
M$152 VDD Iout|VbiasP|VbiasP[0] \$98 VDD sg13_lv_pmos L=5u W=1.45u AS=0.493p
+ AD=0.20875p PS=3.58u PD=1.75u
M$153 \$98 VcascodeP$3 Iout VDD sg13_lv_pmos L=0.6u W=1.2u AS=0.20875p
+ AD=0.516p PS=1.75u PD=3.26u
M$154 VDD Iout|VbiasP|VbiasP[0] \$100 VDD sg13_lv_pmos L=5u W=1.45u AS=0.493p
+ AD=0.20875p PS=3.58u PD=1.75u
M$155 \$100 VcascodeP$4 Iout VDD sg13_lv_pmos L=0.6u W=1.2u AS=0.20875p
+ AD=0.516p PS=1.75u PD=3.26u
M$156 VDD Iout|VbiasP|VbiasP[0] \$101 VDD sg13_lv_pmos L=5u W=1.45u AS=0.493p
+ AD=0.20875p PS=3.58u PD=1.75u
M$157 \$101 VcascodeP$5 Iout VDD sg13_lv_pmos L=0.6u W=1.2u AS=0.20875p
+ AD=0.516p PS=1.75u PD=3.26u
M$158 VDD Iout|VbiasP|VbiasP[0] \$103 VDD sg13_lv_pmos L=5u W=1.45u AS=0.493p
+ AD=0.20875p PS=3.58u PD=1.75u
M$159 \$103 VcascodeP$6 Iout VDD sg13_lv_pmos L=0.6u W=1.2u AS=0.20875p
+ AD=0.516p PS=1.75u PD=3.26u
M$160 VDD Iout|VbiasP|VbiasP[0] \$102 VDD sg13_lv_pmos L=5u W=1.45u AS=0.493p
+ AD=0.20875p PS=3.58u PD=1.75u
M$161 \$102 VcascodeP$7 Iout VDD sg13_lv_pmos L=0.6u W=1.2u AS=0.20875p
+ AD=0.516p PS=1.75u PD=3.26u
M$162 VDD Iout|VbiasP|VbiasP[0] \$104 VDD sg13_lv_pmos L=5u W=1.45u AS=0.493p
+ AD=0.20875p PS=3.58u PD=1.75u
M$163 \$104 VcascodeP$8 Iout VDD sg13_lv_pmos L=0.6u W=1.2u AS=0.20875p
+ AD=0.516p PS=1.75u PD=3.26u
M$164 VDD Iout|VbiasP|VbiasP[0] \$106 VDD sg13_lv_pmos L=5u W=1.45u AS=0.493p
+ AD=0.20875p PS=3.58u PD=1.75u
M$165 \$106 VcascodeP$9 Iout VDD sg13_lv_pmos L=0.6u W=1.2u AS=0.20875p
+ AD=0.516p PS=1.75u PD=3.26u
M$166 VDD Iout|VbiasP|VbiasP[0] \$107 VDD sg13_lv_pmos L=5u W=1.45u AS=0.493p
+ AD=0.20875p PS=3.58u PD=1.75u
M$167 \$107 VcascodeP$10 Iout VDD sg13_lv_pmos L=0.6u W=1.2u AS=0.20875p
+ AD=0.516p PS=1.75u PD=3.26u
M$168 VDD Iout|VbiasP|VbiasP[0] \$108 VDD sg13_lv_pmos L=5u W=1.45u AS=0.493p
+ AD=0.20875p PS=3.58u PD=1.75u
M$169 \$108 VcascodeP$11 Iout VDD sg13_lv_pmos L=0.6u W=1.2u AS=0.20875p
+ AD=0.516p PS=1.75u PD=3.26u
M$170 VDD Iout|VbiasP|VbiasP[0] \$110 VDD sg13_lv_pmos L=5u W=1.45u AS=0.493p
+ AD=0.20875p PS=3.58u PD=1.75u
M$171 \$110 VcascodeP$12 Iout VDD sg13_lv_pmos L=0.6u W=1.2u AS=0.20875p
+ AD=0.516p PS=1.75u PD=3.26u
M$172 VDD Iout|VbiasP|VbiasP[0] \$109 VDD sg13_lv_pmos L=5u W=1.45u AS=0.493p
+ AD=0.20875p PS=3.58u PD=1.75u
M$173 \$109 VcascodeP$13 Iout VDD sg13_lv_pmos L=0.6u W=1.2u AS=0.20875p
+ AD=0.516p PS=1.75u PD=3.26u
M$174 VDD Iout|VbiasP|VbiasP[0] \$111 VDD sg13_lv_pmos L=5u W=1.45u AS=0.493p
+ AD=0.20875p PS=3.58u PD=1.75u
M$175 \$111 VcascodeP$14 Iout VDD sg13_lv_pmos L=0.6u W=1.2u AS=0.20875p
+ AD=0.516p PS=1.75u PD=3.26u
M$176 VDD Iout|VbiasP|VbiasP[0] \$112 VDD sg13_lv_pmos L=5u W=1.45u AS=0.493p
+ AD=0.20875p PS=3.58u PD=1.75u
M$177 \$112 VcascodeP$15 Iout VDD sg13_lv_pmos L=0.6u W=1.2u AS=0.20875p
+ AD=0.516p PS=1.75u PD=3.26u
M$178 VDD Iout|VbiasP|VbiasP[0] \$105 VDD sg13_lv_pmos L=5u W=1.45u AS=0.493p
+ AD=0.20875p PS=3.58u PD=1.75u
M$179 \$105 VcascodeP$16 Iout VDD sg13_lv_pmos L=0.6u W=1.2u AS=0.20875p
+ AD=0.516p PS=1.75u PD=3.26u
M$180 VDD Iout|VbiasP|VbiasP[0] \$99 VDD sg13_lv_pmos L=5u W=1.45u AS=0.493p
+ AD=0.20875p PS=3.58u PD=1.75u
M$181 \$99 VcascodeP$17 Iout|VbiasP|VbiasP[0] VDD sg13_lv_pmos L=0.6u W=1.2u
+ AS=0.20875p AD=0.516p PS=1.75u PD=3.26u
M$183 VcascP|VcascP[1] VcascP|VcascP[1] Iout|VbiasP|VbiasP[1] VDD sg13_lv_pmos
+ L=0.15u W=11.7u AS=3.978p AD=3.978p PS=24.76u PD=24.76u
M$184 Iout|VbiasP|VbiasP[1] VcascodeP$18 \$134 VDD sg13_lv_pmos L=0.6u W=1.2u
+ AS=0.516p AD=0.20875p PS=3.26u PD=1.75u
M$185 \$134 Iout|VbiasP|VbiasP[1] VDD VDD sg13_lv_pmos L=5u W=1.45u AS=0.20875p
+ AD=0.493p PS=1.75u PD=3.58u
M$186 Iout VcascodeP$20 \$137 VDD sg13_lv_pmos L=0.6u W=1.2u AS=0.516p
+ AD=0.20875p PS=3.26u PD=1.75u
M$187 \$137 Iout|VbiasP|VbiasP[1] VDD VDD sg13_lv_pmos L=5u W=1.45u AS=0.20875p
+ AD=0.493p PS=1.75u PD=3.58u
M$188 Iout VcascodeP$22 \$139 VDD sg13_lv_pmos L=0.6u W=1.2u AS=0.516p
+ AD=0.20875p PS=3.26u PD=1.75u
M$189 \$139 Iout|VbiasP|VbiasP[1] VDD VDD sg13_lv_pmos L=5u W=1.45u AS=0.20875p
+ AD=0.493p PS=1.75u PD=3.58u
M$190 Iout VcascodeP$23 \$141 VDD sg13_lv_pmos L=0.6u W=1.2u AS=0.516p
+ AD=0.20875p PS=3.26u PD=1.75u
M$191 \$141 Iout|VbiasP|VbiasP[1] VDD VDD sg13_lv_pmos L=5u W=1.45u AS=0.20875p
+ AD=0.493p PS=1.75u PD=3.58u
M$192 Iout VcascodeP$24 \$142 VDD sg13_lv_pmos L=0.6u W=1.2u AS=0.516p
+ AD=0.20875p PS=3.26u PD=1.75u
M$193 \$142 Iout|VbiasP|VbiasP[1] VDD VDD sg13_lv_pmos L=5u W=1.45u AS=0.20875p
+ AD=0.493p PS=1.75u PD=3.58u
M$194 Iout VcascodeP$34 \$140 VDD sg13_lv_pmos L=0.6u W=1.2u AS=0.516p
+ AD=0.20875p PS=3.26u PD=1.75u
M$195 \$140 Iout|VbiasP|VbiasP[1] VDD VDD sg13_lv_pmos L=5u W=1.45u AS=0.20875p
+ AD=0.493p PS=1.75u PD=3.58u
M$196 Iout|VbiasP|VbiasP[1] VcascodeP$35 \$135 VDD sg13_lv_pmos L=0.6u W=1.2u
+ AS=0.516p AD=0.20875p PS=3.26u PD=1.75u
M$197 \$135 Iout|VbiasP|VbiasP[1] VDD VDD sg13_lv_pmos L=5u W=1.45u AS=0.20875p
+ AD=0.493p PS=1.75u PD=3.58u
M$199 Iout VcascodeP$19 \$136 VDD sg13_lv_pmos L=0.6u W=1.2u AS=0.516p
+ AD=0.20875p PS=3.26u PD=1.75u
M$200 \$136 Iout|VbiasP|VbiasP[1] VDD VDD sg13_lv_pmos L=5u W=1.45u AS=0.20875p
+ AD=0.493p PS=1.75u PD=3.58u
M$201 Iout VcascodeP$21 \$138 VDD sg13_lv_pmos L=0.6u W=1.2u AS=0.516p
+ AD=0.20875p PS=3.26u PD=1.75u
M$202 \$138 Iout|VbiasP|VbiasP[1] VDD VDD sg13_lv_pmos L=5u W=1.45u AS=0.20875p
+ AD=0.493p PS=1.75u PD=3.58u
M$203 Iout VcascodeP$25 \$144 VDD sg13_lv_pmos L=0.6u W=1.2u AS=0.516p
+ AD=0.20875p PS=3.26u PD=1.75u
M$204 \$144 Iout|VbiasP|VbiasP[1] VDD VDD sg13_lv_pmos L=5u W=1.45u AS=0.20875p
+ AD=0.493p PS=1.75u PD=3.58u
M$205 Iout VcascodeP$26 \$145 VDD sg13_lv_pmos L=0.6u W=1.2u AS=0.516p
+ AD=0.20875p PS=3.26u PD=1.75u
M$206 \$145 Iout|VbiasP|VbiasP[1] VDD VDD sg13_lv_pmos L=5u W=1.45u AS=0.20875p
+ AD=0.493p PS=1.75u PD=3.58u
M$207 Iout VcascodeP$27 \$146 VDD sg13_lv_pmos L=0.6u W=1.2u AS=0.516p
+ AD=0.20875p PS=3.26u PD=1.75u
M$208 \$146 Iout|VbiasP|VbiasP[1] VDD VDD sg13_lv_pmos L=5u W=1.45u AS=0.20875p
+ AD=0.493p PS=1.75u PD=3.58u
M$209 Iout VcascodeP$28 \$147 VDD sg13_lv_pmos L=0.6u W=1.2u AS=0.516p
+ AD=0.20875p PS=3.26u PD=1.75u
M$210 \$147 Iout|VbiasP|VbiasP[1] VDD VDD sg13_lv_pmos L=5u W=1.45u AS=0.20875p
+ AD=0.493p PS=1.75u PD=3.58u
M$211 Iout VcascodeP$29 \$149 VDD sg13_lv_pmos L=0.6u W=1.2u AS=0.516p
+ AD=0.20875p PS=3.26u PD=1.75u
M$212 \$149 Iout|VbiasP|VbiasP[1] VDD VDD sg13_lv_pmos L=5u W=1.45u AS=0.20875p
+ AD=0.493p PS=1.75u PD=3.58u
M$213 Iout VcascodeP$30 \$150 VDD sg13_lv_pmos L=0.6u W=1.2u AS=0.516p
+ AD=0.20875p PS=3.26u PD=1.75u
M$214 \$150 Iout|VbiasP|VbiasP[1] VDD VDD sg13_lv_pmos L=5u W=1.45u AS=0.20875p
+ AD=0.493p PS=1.75u PD=3.58u
M$215 Iout VcascodeP$31 \$151 VDD sg13_lv_pmos L=0.6u W=1.2u AS=0.516p
+ AD=0.20875p PS=3.26u PD=1.75u
M$216 \$151 Iout|VbiasP|VbiasP[1] VDD VDD sg13_lv_pmos L=5u W=1.45u AS=0.20875p
+ AD=0.493p PS=1.75u PD=3.58u
M$217 Iout VcascodeP$32 \$148 VDD sg13_lv_pmos L=0.6u W=1.2u AS=0.516p
+ AD=0.20875p PS=3.26u PD=1.75u
M$218 \$148 Iout|VbiasP|VbiasP[1] VDD VDD sg13_lv_pmos L=5u W=1.45u AS=0.20875p
+ AD=0.493p PS=1.75u PD=3.58u
M$219 Iout VcascodeP$33 \$143 VDD sg13_lv_pmos L=0.6u W=1.2u AS=0.516p
+ AD=0.20875p PS=3.26u PD=1.75u
M$220 \$143 Iout|VbiasP|VbiasP[1] VDD VDD sg13_lv_pmos L=5u W=1.45u AS=0.20875p
+ AD=0.493p PS=1.75u PD=3.58u
M$221 VDD OUTP$18 VcascodeP$18 VDD sg13_lv_pmos L=0.13u W=0.3u AS=0.102p
+ AD=0.057p PS=1.28u PD=0.68u
M$222 VcascodeP$18 OUTN$18 VcascP|VcascP[1] VDD sg13_lv_pmos L=0.13u W=0.3u
+ AS=0.057p AD=0.102p PS=0.68u PD=1.28u
M$223 VDD OUTP$19 VcascodeP$19 VDD sg13_lv_pmos L=0.13u W=0.3u AS=0.102p
+ AD=0.057p PS=1.28u PD=0.68u
M$224 VcascodeP$19 OUTN$19 VcascP|VcascP[1] VDD sg13_lv_pmos L=0.13u W=0.3u
+ AS=0.057p AD=0.102p PS=0.68u PD=1.28u
M$225 VDD OUTP$20 VcascodeP$20 VDD sg13_lv_pmos L=0.13u W=0.3u AS=0.102p
+ AD=0.057p PS=1.28u PD=0.68u
M$226 VcascodeP$20 OUTN$20 VcascP|VcascP[1] VDD sg13_lv_pmos L=0.13u W=0.3u
+ AS=0.057p AD=0.102p PS=0.68u PD=1.28u
M$227 VDD OUTP$21 VcascodeP$21 VDD sg13_lv_pmos L=0.13u W=0.3u AS=0.102p
+ AD=0.057p PS=1.28u PD=0.68u
M$228 VcascodeP$21 OUTN$21 VcascP|VcascP[1] VDD sg13_lv_pmos L=0.13u W=0.3u
+ AS=0.057p AD=0.102p PS=0.68u PD=1.28u
M$229 VDD OUTP$22 VcascodeP$22 VDD sg13_lv_pmos L=0.13u W=0.3u AS=0.102p
+ AD=0.057p PS=1.28u PD=0.68u
M$230 VcascodeP$22 OUTN$22 VcascP|VcascP[1] VDD sg13_lv_pmos L=0.13u W=0.3u
+ AS=0.057p AD=0.102p PS=0.68u PD=1.28u
M$231 VDD OUTP$23 VcascodeP$23 VDD sg13_lv_pmos L=0.13u W=0.3u AS=0.102p
+ AD=0.057p PS=1.28u PD=0.68u
M$232 VcascodeP$23 OUTN$23 VcascP|VcascP[1] VDD sg13_lv_pmos L=0.13u W=0.3u
+ AS=0.057p AD=0.102p PS=0.68u PD=1.28u
M$233 VDD OUTP$24 VcascodeP$24 VDD sg13_lv_pmos L=0.13u W=0.3u AS=0.102p
+ AD=0.057p PS=1.28u PD=0.68u
M$234 VcascodeP$24 OUTN$24 VcascP|VcascP[1] VDD sg13_lv_pmos L=0.13u W=0.3u
+ AS=0.057p AD=0.102p PS=0.68u PD=1.28u
M$235 VDD OUTP$25 VcascodeP$25 VDD sg13_lv_pmos L=0.13u W=0.3u AS=0.102p
+ AD=0.057p PS=1.28u PD=0.68u
M$236 VcascodeP$25 OUTN$25 VcascP|VcascP[1] VDD sg13_lv_pmos L=0.13u W=0.3u
+ AS=0.057p AD=0.102p PS=0.68u PD=1.28u
M$237 VDD OUTP$26 VcascodeP$26 VDD sg13_lv_pmos L=0.13u W=0.3u AS=0.102p
+ AD=0.057p PS=1.28u PD=0.68u
M$238 VcascodeP$26 OUTN$26 VcascP|VcascP[1] VDD sg13_lv_pmos L=0.13u W=0.3u
+ AS=0.057p AD=0.102p PS=0.68u PD=1.28u
M$239 VDD OUTP$27 VcascodeP$27 VDD sg13_lv_pmos L=0.13u W=0.3u AS=0.102p
+ AD=0.057p PS=1.28u PD=0.68u
M$240 VcascodeP$27 OUTN$27 VcascP|VcascP[1] VDD sg13_lv_pmos L=0.13u W=0.3u
+ AS=0.057p AD=0.102p PS=0.68u PD=1.28u
M$241 VDD OUTP$28 VcascodeP$28 VDD sg13_lv_pmos L=0.13u W=0.3u AS=0.102p
+ AD=0.057p PS=1.28u PD=0.68u
M$242 VcascodeP$28 OUTN$28 VcascP|VcascP[1] VDD sg13_lv_pmos L=0.13u W=0.3u
+ AS=0.057p AD=0.102p PS=0.68u PD=1.28u
M$243 VDD OUTP$29 VcascodeP$29 VDD sg13_lv_pmos L=0.13u W=0.3u AS=0.102p
+ AD=0.057p PS=1.28u PD=0.68u
M$244 VcascodeP$29 OUTN$29 VcascP|VcascP[1] VDD sg13_lv_pmos L=0.13u W=0.3u
+ AS=0.057p AD=0.102p PS=0.68u PD=1.28u
M$245 VDD OUTP$30 VcascodeP$30 VDD sg13_lv_pmos L=0.13u W=0.3u AS=0.102p
+ AD=0.057p PS=1.28u PD=0.68u
M$246 VcascodeP$30 OUTN$30 VcascP|VcascP[1] VDD sg13_lv_pmos L=0.13u W=0.3u
+ AS=0.057p AD=0.102p PS=0.68u PD=1.28u
M$247 VDD OUTP$31 VcascodeP$31 VDD sg13_lv_pmos L=0.13u W=0.3u AS=0.102p
+ AD=0.057p PS=1.28u PD=0.68u
M$248 VcascodeP$31 OUTN$31 VcascP|VcascP[1] VDD sg13_lv_pmos L=0.13u W=0.3u
+ AS=0.057p AD=0.102p PS=0.68u PD=1.28u
M$249 VDD OUTP$32 VcascodeP$32 VDD sg13_lv_pmos L=0.13u W=0.3u AS=0.102p
+ AD=0.057p PS=1.28u PD=0.68u
M$250 VcascodeP$32 OUTN$32 VcascP|VcascP[1] VDD sg13_lv_pmos L=0.13u W=0.3u
+ AS=0.057p AD=0.102p PS=0.68u PD=1.28u
M$251 VDD OUTP$33 VcascodeP$33 VDD sg13_lv_pmos L=0.13u W=0.3u AS=0.102p
+ AD=0.057p PS=1.28u PD=0.68u
M$252 VcascodeP$33 OUTN$33 VcascP|VcascP[1] VDD sg13_lv_pmos L=0.13u W=0.3u
+ AS=0.057p AD=0.102p PS=0.68u PD=1.28u
M$253 VDD OUTP$34 VcascodeP$34 VDD sg13_lv_pmos L=0.13u W=0.3u AS=0.102p
+ AD=0.057p PS=1.28u PD=0.68u
M$254 VcascodeP$34 OUTN$34 VcascP|VcascP[1] VDD sg13_lv_pmos L=0.13u W=0.3u
+ AS=0.057p AD=0.102p PS=0.68u PD=1.28u
M$255 VDD OUTP$35 VcascodeP$35 VDD sg13_lv_pmos L=0.13u W=0.3u AS=0.102p
+ AD=0.057p PS=1.28u PD=0.68u
M$256 VcascodeP$35 OUTN$35 VcascP|VcascP[1] VDD sg13_lv_pmos L=0.13u W=0.3u
+ AS=0.057p AD=0.102p PS=0.68u PD=1.28u
M$257 OUTP$18 ENB[1]|ENB[3]|INN|ONB VDD VDD sg13_lv_pmos L=0.13u W=0.3u
+ AS=0.1725p AD=0.057p PS=1.75u PD=0.68u
M$258 VDD EN[1]|EN[3]|INP|ON OUTN$18 VDD sg13_lv_pmos L=0.13u W=0.3u AS=0.057p
+ AD=0.1725p PS=0.68u PD=1.75u
M$259 OUTP$19 INN|ONB|ONB[15]|ONB[31] VDD VDD sg13_lv_pmos L=0.13u W=0.3u
+ AS=0.1725p AD=0.057p PS=1.75u PD=0.68u
M$260 VDD INP|ON|ON[15]|ON[31] OUTN$19 VDD sg13_lv_pmos L=0.13u W=0.3u
+ AS=0.057p AD=0.1725p PS=0.68u PD=1.75u
M$261 OUTP$20 INN|ONB|ONB[14]|ONB[30] VDD VDD sg13_lv_pmos L=0.13u W=0.3u
+ AS=0.1725p AD=0.057p PS=1.75u PD=0.68u
M$262 VDD INP|ON|ON[14]|ON[30] OUTN$20 VDD sg13_lv_pmos L=0.13u W=0.3u
+ AS=0.057p AD=0.1725p PS=0.68u PD=1.75u
M$263 OUTP$21 INN|ONB|ONB[13]|ONB[29] VDD VDD sg13_lv_pmos L=0.13u W=0.3u
+ AS=0.1725p AD=0.057p PS=1.75u PD=0.68u