* NGSPICE file created from heichips25_pudding.ext - technology: ihp-sg13g2

* Black-box entry subcircuit for sg13g2_decap_8 abstract view
.subckt sg13g2_decap_8 VDD VSS
.ends

* Black-box entry subcircuit for sg13g2_dfrbpq_1 abstract view
.subckt sg13g2_dfrbpq_1 RESET_B VSS VDD D Q CLK
.ends

* Black-box entry subcircuit for sg13g2_decap_4 abstract view
.subckt sg13g2_decap_4 VDD VSS
.ends

* Black-box entry subcircuit for sg13g2_a21oi_1 abstract view
.subckt sg13g2_a21oi_1 VSS VDD A1 A2 Y B1
.ends

* Black-box entry subcircuit for sg13g2_fill_2 abstract view
.subckt sg13g2_fill_2 VDD VSS
.ends

* Black-box entry subcircuit for sg13g2_inv_1 abstract view
.subckt sg13g2_inv_1 VDD Y A VSS
.ends

* Black-box entry subcircuit for sg13g2_fill_1 abstract view
.subckt sg13g2_fill_1 VDD VSS
.ends

* Black-box entry subcircuit for sg13g2_buf_1 abstract view
.subckt sg13g2_buf_1 A X VDD VSS
.ends

* Black-box entry subcircuit for sg13g2_a21o_1 abstract view
.subckt sg13g2_a21o_1 A2 A1 B1 X VDD VSS
.ends

* Black-box entry subcircuit for sg13g2_o21ai_1 abstract view
.subckt sg13g2_o21ai_1 B1 VDD Y VSS A1 A2
.ends

* Black-box entry subcircuit for sg13g2_a22oi_1 abstract view
.subckt sg13g2_a22oi_1 Y B1 B2 A2 A1 VDD VSS
.ends

* Black-box entry subcircuit for sg13g2_buf_8 abstract view
.subckt sg13g2_buf_8 A X VDD VSS
.ends

* Black-box entry subcircuit for sg13g2_inv_2 abstract view
.subckt sg13g2_inv_2 Y A VDD VSS
.ends

* Black-box entry subcircuit for sg13g2_buf_16 abstract view
.subckt sg13g2_buf_16 X A VDD VSS
.ends

* Black-box entry subcircuit for sg13g2_inv_8 abstract view
.subckt sg13g2_inv_8 Y A VDD VSS
.ends

* Black-box entry subcircuit for sg13g2_inv_16 abstract view
.subckt sg13g2_inv_16 A Y VDD VSS
.ends

* Black-box entry subcircuit for sg13g2_inv_4 abstract view
.subckt sg13g2_inv_4 A Y VDD VSS
.ends

* Black-box entry subcircuit for input_mirror abstract view
.subckt input_mirror VSSA i_out VbiasP[0] VbiasP[1] VbiasP[2] VbiasP[3] VbiasP[4]
+ VbiasP[5] VbiasP[6] VbiasP[7] i_in
.ends

* Black-box entry subcircuit for sg13g2_nor2_1 abstract view
.subckt sg13g2_nor2_1 A B Y VDD VSS
.ends

* Black-box entry subcircuit for dac4x32module abstract view
.subckt dac4x32module EN[13] ENB[13] ON[111] ONB[111] ON[110] ONB[110] ON[109] ONB[109]
+ ON[108] ONB[108] ON[107] ONB[107] ON[106] ONB[106] ON[105] ONB[105] ON[104] ONB[104]
+ ON[103] ONB[103] ON[102] ONB[102] ON[101] ONB[101] ON[100] ONB[100] ON[99] ONB[99]
+ ON[98] ONB[98] ON[97] ONB[97] ON[96] ONB[96] EN[12] ENB[12] EN[15] ENB[15] ON[127]
+ ONB[127] ON[126] ONB[126] ON[125] ONB[125] ON[124] ONB[124] ON[123] ONB[123] ON[122]
+ ONB[122] ON[121] ONB[121] ON[120] ONB[120] ON[119] ONB[119] ON[118] ONB[118] ON[117]
+ ONB[117] ON[116] ONB[116] ON[115] ONB[115] ON[114] ONB[114] ON[113] ONB[113] ON[112]
+ ONB[112] EN[14] ENB[14] EN[9] ENB[9] ON[79] ONB[79] ON[78] ONB[78] ON[77] ONB[77]
+ ON[76] ONB[76] ON[75] ONB[75] ON[74] ONB[74] ON[73] ONB[73] ON[72] ONB[72] ON[71]
+ ONB[71] ON[70] ONB[70] ON[69] ONB[69] ON[68] ONB[68] ON[67] ONB[67] ON[66] ONB[66]
+ ON[65] ONB[65] ON[64] ONB[64] EN[8] ENB[8] EN[11] ENB[11] ON[95] ONB[95] ON[94]
+ ONB[94] ON[93] ONB[93] ON[92] ONB[92] ON[91] ONB[91] ON[90] ONB[90] ON[89] ONB[89]
+ ON[88] ONB[88] ON[87] ONB[87] ON[86] ONB[86] ON[85] ONB[85] ON[84] ONB[84] ON[83]
+ ONB[83] ON[82] ONB[82] ON[81] ONB[81] ON[80] ONB[80] EN[10] ENB[10] EN[4] ENB[4]
+ EN[6] ENB[6] ON[63] ONB[63] ON[62] ONB[62] ON[61] ONB[61] ON[60] ONB[60] ON[59]
+ ONB[59] ON[58] ONB[58] ON[57] EN[7] ENB[7] ONB[57] ON[56] ONB[56] ON[55] ONB[55]
+ ON[54] ONB[54] ON[53] ONB[53] ON[52] ONB[52] ON[51] ONB[51] ON[50] ONB[50] ON[49]
+ ONB[49] ON[48] ONB[48] ON[47] ONB[47] ON[46] ONB[46] ON[45] ONB[45] ON[44] ONB[44]
+ ON[43] ONB[43] ON[42] ONB[42] ON[41] EN[5] ENB[5] ONB[41] ON[40] ONB[40] ON[39]
+ ONB[39] ON[38] ONB[38] ON[37] ONB[37] ON[36] ONB[36] ON[35] ONB[35] ON[34] ONB[34]
+ ON[33] ONB[33] ON[32] ONB[32] EN[0] ENB[0] EN[2] ENB[2] ON[31] ONB[31] ON[30] ONB[30]
+ ON[29] ONB[29] ON[28] ONB[28] ON[27] ONB[27] ON[26] ONB[26] ON[25] EN[3] ENB[3]
+ ONB[25] ON[24] ONB[24] ON[23] ONB[23] ON[22] ONB[22] ON[21] ONB[21] ON[20] ONB[20]
+ ON[19] ONB[19] ON[18] ONB[18] ON[17] ONB[17] ON[16] ONB[16] ON[15] ONB[15] ON[14]
+ ONB[14] ON[13] ONB[13] ON[12] ONB[12] ON[11] ONB[11] ON[10] ONB[10] ON[9] EN[1]
+ ENB[1] ONB[9] ON[8] ONB[8] ON[7] ONB[7] ON[6] ONB[6] ON[5] ONB[5] ON[4] ONB[4] ON[3]
+ ONB[3] ON[2] ONB[2] ON[1] ONB[1] ON[0] ONB[0] VDD VSS VbiasP[0] VbiasP[1] VbiasP[2]
+ VbiasP[3] VbiasP[4] VbiasP[5] VbiasP[6] VbiasP[7] Iout
.ends

* Black-box entry subcircuit for sg13g2_antennanp abstract view
.subckt sg13g2_antennanp VDD VSS A
.ends

.subckt heichips25_pudding VGND VPWR clk ena i_in i_out rst_n ui_in[0] ui_in[1] ui_in[2]
+ ui_in[3] ui_in[4] ui_in[5] ui_in[6] ui_in[7] uio_in[0] uio_in[1] uio_in[2] uio_in[3]
+ uio_in[4] uio_in[5] uio_in[6] uio_in[7] uio_oe[0] uio_oe[1] uio_oe[2] uio_oe[3]
+ uio_oe[4] uio_oe[5] uio_oe[6] uio_oe[7] uio_out[0] uio_out[1] uio_out[2] uio_out[3]
+ uio_out[4] uio_out[5] uio_out[6] uio_out[7] uo_out[0] uo_out[1] uo_out[2] uo_out[3]
+ uo_out[4] uo_out[5] uo_out[6] uo_out[7]
XFILLER_39_266 VPWR VGND sg13g2_decap_8
X_2037_ net228 VGND VPWR _0369_ state\[113\] clknet_leaf_7_clk sg13g2_dfrbpq_1
XFILLER_22_144 VPWR VGND sg13g2_decap_8
XFILLER_7_7 VPWR VGND sg13g2_decap_8
XFILLER_26_96 VPWR VGND sg13g2_decap_8
XFILLER_45_203 VPWR VGND sg13g2_decap_8
XFILLER_10_840 VPWR VGND sg13g2_decap_4
XFILLER_13_177 VPWR VGND sg13g2_decap_8
XFILLER_42_84 VPWR VGND sg13g2_decap_8
XFILLER_6_811 VPWR VGND sg13g2_decap_4
XFILLER_9_137 VPWR VGND sg13g2_decap_8
XFILLER_1_571 VPWR VGND sg13g2_decap_8
XFILLER_5_354 VPWR VGND sg13g2_decap_8
XFILLER_6_866 VPWR VGND sg13g2_decap_8
XFILLER_6_888 VPWR VGND sg13g2_decap_8
XFILLER_36_214 VPWR VGND sg13g2_decap_8
XFILLER_37_737 VPWR VGND sg13g2_decap_8
XFILLER_3_67 VPWR VGND sg13g2_decap_8
XFILLER_49_520 VPWR VGND sg13g2_decap_8
X_1270_ VGND VPWR net85 daisychain\[27\] _0397_ net53 sg13g2_a21oi_1
XFILLER_20_648 VPWR VGND sg13g2_fill_2
XFILLER_44_280 VPWR VGND sg13g2_decap_8
XFILLER_45_770 VPWR VGND sg13g2_decap_8
XFILLER_20_659 VPWR VGND sg13g2_decap_4
X_1606_ VGND VPWR net98 daisychain\[111\] _0649_ net73 sg13g2_a21oi_1
X_0985_ VPWR _0103_ state\[78\] VGND sg13g2_inv_1
XFILLER_9_682 VPWR VGND sg13g2_fill_1
Xfanout105 net108 net105 VPWR VGND sg13g2_buf_1
Xfanout116 net117 net116 VPWR VGND sg13g2_buf_1
Xfanout127 net128 net127 VPWR VGND sg13g2_buf_1
Xfanout138 net145 net138 VPWR VGND sg13g2_buf_1
Xfanout149 net152 net149 VPWR VGND sg13g2_buf_1
X_1537_ _0796_ net128 _0596_ _0597_ VPWR VGND sg13g2_a21o_1
X_1468_ net156 VPWR _0545_ VGND net113 state\[78\] sg13g2_o21ai_1
X_1399_ _0188_ _0492_ _0493_ net38 _0761_ VPWR VGND sg13g2_a22oi_1
XFILLER_35_291 VPWR VGND sg13g2_decap_8
XFILLER_42_217 VPWR VGND sg13g2_decap_8
XFILLER_43_707 VPWR VGND sg13g2_decap_8
XFILLER_10_169 VPWR VGND sg13g2_decap_8
XFILLER_11_615 VPWR VGND sg13g2_fill_1
XFILLER_2_368 VPWR VGND sg13g2_decap_8
XFILLER_3_858 VPWR VGND sg13g2_decap_8
XFILLER_5_4 VPWR VGND sg13g2_decap_8
XFILLER_19_726 VPWR VGND sg13g2_fill_2
XFILLER_37_84 VPWR VGND sg13g2_decap_8
XFILLER_46_567 VPWR VGND sg13g2_decap_8
XFILLER_14_486 VPWR VGND sg13g2_decap_8
XFILLER_18_269 VPWR VGND sg13g2_fill_2
XFILLER_33_228 VPWR VGND sg13g2_decap_8
XFILLER_41_294 VPWR VGND sg13g2_decap_8
XFILLER_5_151 VPWR VGND sg13g2_decap_8
XFILLER_6_641 VPWR VGND sg13g2_decap_8
X_1322_ VGND VPWR net87 daisychain\[40\] _0436_ net49 sg13g2_a21oi_1
X_1253_ _0725_ net118 _0897_ _0384_ VPWR VGND sg13g2_a21o_1
XFILLER_24_206 VPWR VGND sg13g2_decap_8
XFILLER_37_578 VPWR VGND sg13g2_fill_1
XFILLER_49_361 VPWR VGND sg13g2_decap_8
X_1184_ net178 VPWR _0846_ VGND net133 state\[7\] sg13g2_o21ai_1
XFILLER_33_784 VPWR VGND sg13g2_decap_8
X_0968_ VPWR _0085_ state\[61\] VGND sg13g2_inv_1
X_0899_ VPWR _0696_ net147 VGND sg13g2_inv_1
XFILLER_23_20 VPWR VGND sg13g2_decap_8
XFILLER_43_504 VPWR VGND sg13g2_decap_8
XFILLER_23_75 VPWR VGND sg13g2_decap_8
XFILLER_7_427 VPWR VGND sg13g2_decap_8
XFILLER_2_165 VPWR VGND sg13g2_decap_8
XFILLER_3_655 VPWR VGND sg13g2_decap_8
XFILLER_0_35 VPWR VGND sg13g2_decap_8
XFILLER_34_515 VPWR VGND sg13g2_decap_4
XFILLER_34_559 VPWR VGND sg13g2_fill_1
XFILLER_46_364 VPWR VGND sg13g2_decap_8
XFILLER_47_854 VPWR VGND sg13g2_decap_8
XFILLER_14_250 VPWR VGND sg13g2_decap_8
XFILLER_30_710 VPWR VGND sg13g2_fill_1
XFILLER_9_11 VPWR VGND sg13g2_decap_8
X_1940_ net219 VGND VPWR _0272_ state\[16\] clknet_leaf_8_clk sg13g2_dfrbpq_1
X_1871_ net200 VGND VPWR _0203_ daisychain\[75\] clknet_leaf_2_clk sg13g2_dfrbpq_1
XFILLER_9_88 VPWR VGND sg13g2_decap_8
X_1305_ _0738_ net116 _0422_ _0423_ VPWR VGND sg13g2_a21o_1
X_1236_ net174 VPWR _0885_ VGND net130 state\[20\] sg13g2_o21ai_1
XFILLER_40_529 VPWR VGND sg13g2_decap_4
X_1167_ _0130_ _0832_ _0833_ net67 _0703_ VPWR VGND sg13g2_a22oi_1
X_1098_ VPWR _0767_ daisychain\[66\] VGND sg13g2_inv_1
XFILLER_20_264 VPWR VGND sg13g2_fill_2
XFILLER_0_603 VPWR VGND sg13g2_decap_8
XFILLER_18_97 VPWR VGND sg13g2_decap_8
XFILLER_43_301 VPWR VGND sg13g2_decap_8
XFILLER_44_813 VPWR VGND sg13g2_decap_8
XFILLER_11_275 VPWR VGND sg13g2_decap_8
XFILLER_12_732 VPWR VGND sg13g2_fill_1
XFILLER_34_74 VPWR VGND sg13g2_decap_8
XFILLER_43_378 VPWR VGND sg13g2_decap_8
XFILLER_3_452 VPWR VGND sg13g2_decap_8
XFILLER_7_224 VPWR VGND sg13g2_decap_8
XFILLER_19_320 VPWR VGND sg13g2_fill_1
X_2070_ daisychain\[122\] net28 VPWR VGND sg13g2_buf_1
XFILLER_34_389 VPWR VGND sg13g2_decap_4
XFILLER_46_161 VPWR VGND sg13g2_decap_8
XFILLER_47_651 VPWR VGND sg13g2_decap_8
X_1021_ VPWR _0016_ state\[114\] VGND sg13g2_inv_1
XFILLER_30_540 VPWR VGND sg13g2_fill_2
X_1923_ net190 VGND VPWR _0255_ daisychain\[127\] clknet_leaf_0_clk sg13g2_dfrbpq_1
X_1854_ net193 VGND VPWR _0186_ daisychain\[58\] clknet_leaf_14_clk sg13g2_dfrbpq_1
X_1785_ _0663_ VPWR _0373_ VGND net185 _0019_ sg13g2_o21ai_1
XFILLER_29_139 VPWR VGND sg13g2_decap_8
XFILLER_37_161 VPWR VGND sg13g2_decap_8
XFILLER_38_651 VPWR VGND sg13g2_decap_8
X_1219_ _0143_ _0871_ _0872_ net66 _0716_ VPWR VGND sg13g2_a22oi_1
XFILLER_40_315 VPWR VGND sg13g2_decap_8
XFILLER_41_827 VPWR VGND sg13g2_fill_2
XFILLER_20_76 VPWR VGND sg13g2_decap_8
XFILLER_4_249 VPWR VGND sg13g2_decap_8
XFILLER_5_739 VPWR VGND sg13g2_decap_8
XFILLER_0_455 VPWR VGND sg13g2_decap_8
XFILLER_29_41 VPWR VGND sg13g2_decap_8
XFILLER_48_448 VPWR VGND sg13g2_decap_8
XFILLER_49_905 VPWR VGND sg13g2_decap_8
XFILLER_28_161 VPWR VGND sg13g2_decap_8
XFILLER_35_109 VPWR VGND sg13g2_decap_8
XFILLER_43_175 VPWR VGND sg13g2_decap_8
XFILLER_44_665 VPWR VGND sg13g2_decap_8
XFILLER_45_84 VPWR VGND sg13g2_decap_8
XFILLER_12_551 VPWR VGND sg13g2_fill_2
XFILLER_40_871 VPWR VGND sg13g2_decap_8
XFILLER_6_67 VPWR VGND sg13g2_decap_8
X_1570_ VGND VPWR net96 daisychain\[102\] _0622_ net72 sg13g2_a21oi_1
XFILLER_19_183 VPWR VGND sg13g2_decap_8
XFILLER_39_437 VPWR VGND sg13g2_fill_1
X_2053_ ena net11 VPWR VGND sg13g2_buf_1
XFILLER_34_186 VPWR VGND sg13g2_decap_8
X_1004_ VPWR _0124_ state\[97\] VGND sg13g2_inv_1
X_1906_ net226 VGND VPWR _0238_ daisychain\[110\] clknet_leaf_7_clk sg13g2_dfrbpq_1
X_1837_ net204 VGND VPWR _0169_ daisychain\[41\] clknet_leaf_12_clk sg13g2_dfrbpq_1
X_1768_ _0612_ VPWR _0356_ VGND net172 _0001_ sg13g2_o21ai_1
X_1699_ _0405_ VPWR _0287_ VGND net165 _0052_ sg13g2_o21ai_1
XFILLER_14_827 VPWR VGND sg13g2_fill_2
XFILLER_25_153 VPWR VGND sg13g2_decap_8
XFILLER_31_53 VPWR VGND sg13g2_decap_8
XFILLER_40_112 VPWR VGND sg13g2_decap_8
XFILLER_40_189 VPWR VGND sg13g2_decap_8
XFILLER_41_657 VPWR VGND sg13g2_fill_1
XFILLER_9_319 VPWR VGND sg13g2_decap_8
XFILLER_1_753 VPWR VGND sg13g2_decap_8
XFILLER_5_536 VPWR VGND sg13g2_decap_8
Xoutput31 net31 uo_out[5] VPWR VGND sg13g2_buf_1
Xoutput20 net20 uio_out[2] VPWR VGND sg13g2_buf_1
XFILLER_0_252 VPWR VGND sg13g2_decap_8
XFILLER_37_908 VPWR VGND sg13g2_decap_8
XFILLER_48_245 VPWR VGND sg13g2_decap_8
XFILLER_49_746 VPWR VGND sg13g2_decap_4
XFILLER_16_175 VPWR VGND sg13g2_decap_8
XFILLER_17_676 VPWR VGND sg13g2_decap_8
XFILLER_20_819 VPWR VGND sg13g2_fill_1
XFILLER_31_123 VPWR VGND sg13g2_decap_8
XFILLER_44_462 VPWR VGND sg13g2_decap_8
XFILLER_8_396 VPWR VGND sg13g2_decap_8
X_1622_ VGND VPWR net97 daisychain\[115\] _0661_ net74 sg13g2_a21oi_1
XFILLER_9_875 VPWR VGND sg13g2_decap_8
X_1553_ _0800_ net126 _0608_ _0609_ VPWR VGND sg13g2_a21o_1
X_1484_ net170 VPWR _0557_ VGND net125 state\[82\] sg13g2_o21ai_1
XFILLER_39_245 VPWR VGND sg13g2_decap_8
X_2036_ net229 VGND VPWR _0368_ state\[112\] clknet_leaf_7_clk sg13g2_dfrbpq_1
XFILLER_22_123 VPWR VGND sg13g2_decap_8
XFILLER_35_495 VPWR VGND sg13g2_decap_8
XFILLER_46_749 VPWR VGND sg13g2_decap_8
XFILLER_13_156 VPWR VGND sg13g2_decap_8
XFILLER_26_20 VPWR VGND sg13g2_decap_8
XFILLER_26_75 VPWR VGND sg13g2_decap_8
XFILLER_42_911 VPWR VGND sg13g2_decap_8
XFILLER_45_259 VPWR VGND sg13g2_decap_8
XFILLER_9_116 VPWR VGND sg13g2_decap_8
XFILLER_42_63 VPWR VGND sg13g2_decap_8
XFILLER_5_333 VPWR VGND sg13g2_decap_8
XFILLER_1_550 VPWR VGND sg13g2_decap_8
XFILLER_3_46 VPWR VGND sg13g2_decap_8
XFILLER_20_605 VPWR VGND sg13g2_decap_8
X_0984_ VPWR _0102_ state\[77\] VGND sg13g2_inv_1
XFILLER_8_193 VPWR VGND sg13g2_decap_8
X_1605_ _0813_ net144 _0647_ _0648_ VPWR VGND sg13g2_a21o_1
X_1536_ net173 VPWR _0596_ VGND net128 state\[95\] sg13g2_o21ai_1
Xfanout106 net107 net106 VPWR VGND sg13g2_buf_1
Xfanout117 net122 net117 VPWR VGND sg13g2_buf_1
Xfanout128 net129 net128 VPWR VGND sg13g2_buf_1
Xfanout139 net141 net139 VPWR VGND sg13g2_buf_1
X_1467_ _0205_ _0543_ _0544_ net46 _0778_ VPWR VGND sg13g2_a22oi_1
X_1398_ VGND VPWR net81 daisychain\[59\] _0493_ net38 sg13g2_a21oi_1
XFILLER_35_270 VPWR VGND sg13g2_decap_8
XFILLER_36_760 VPWR VGND sg13g2_fill_1
X_2019_ net216 VGND VPWR _0351_ state\[95\] clknet_leaf_4_clk sg13g2_dfrbpq_1
XFILLER_10_148 VPWR VGND sg13g2_decap_8
XFILLER_12_88 VPWR VGND sg13g2_fill_2
XFILLER_2_347 VPWR VGND sg13g2_decap_8
XFILLER_3_837 VPWR VGND sg13g2_decap_8
XFILLER_18_259 VPWR VGND sg13g2_fill_1
XFILLER_19_749 VPWR VGND sg13g2_decap_8
XFILLER_33_207 VPWR VGND sg13g2_decap_8
XFILLER_37_63 VPWR VGND sg13g2_decap_8
XFILLER_46_546 VPWR VGND sg13g2_decap_8
XFILLER_30_925 VPWR VGND sg13g2_fill_2
XFILLER_41_273 VPWR VGND sg13g2_decap_8
XFILLER_42_785 VPWR VGND sg13g2_decap_8
XFILLER_10_671 VPWR VGND sg13g2_fill_1
XFILLER_5_130 VPWR VGND sg13g2_decap_8
XFILLER_6_620 VPWR VGND sg13g2_decap_8
XFILLER_49_340 VPWR VGND sg13g2_decap_8
X_1321_ _0742_ net116 _0434_ _0435_ VPWR VGND sg13g2_a21o_1
X_1252_ net163 VPWR _0897_ VGND net118 state\[24\] sg13g2_o21ai_1
XFILLER_18_760 VPWR VGND sg13g2_fill_1
X_1183_ _0134_ _0844_ _0845_ net67 _0707_ VPWR VGND sg13g2_a22oi_1
XFILLER_32_284 VPWR VGND sg13g2_fill_2
XFILLER_32_295 VPWR VGND sg13g2_fill_2
X_0967_ VPWR _0084_ state\[60\] VGND sg13g2_inv_1
XFILLER_0_807 VPWR VGND sg13g2_decap_8
X_1519_ _0218_ _0582_ _0583_ net58 _0791_ VPWR VGND sg13g2_a22oi_1
X_0898_ VPWR _0695_ daisychain\[123\] VGND sg13g2_inv_1
XFILLER_15_229 VPWR VGND sg13g2_decap_8
XFILLER_23_251 VPWR VGND sg13g2_fill_1
XFILLER_7_406 VPWR VGND sg13g2_decap_8
XFILLER_8_918 VPWR VGND sg13g2_decap_8
XFILLER_3_634 VPWR VGND sg13g2_decap_8
XFILLER_19_502 VPWR VGND sg13g2_fill_1
XFILLER_2_144 VPWR VGND sg13g2_decap_8
XFILLER_47_833 VPWR VGND sg13g2_decap_8
XFILLER_48_84 VPWR VGND sg13g2_decap_8
XFILLER_0_14 VPWR VGND sg13g2_decap_8
XFILLER_15_752 VPWR VGND sg13g2_fill_1
XFILLER_46_343 VPWR VGND sg13g2_decap_8
XFILLER_30_744 VPWR VGND sg13g2_decap_8
X_1870_ net200 VGND VPWR _0202_ daisychain\[74\] clknet_leaf_2_clk sg13g2_dfrbpq_1
XFILLER_9_67 VPWR VGND sg13g2_decap_8
XFILLER_6_494 VPWR VGND sg13g2_decap_8
XFILLER_37_343 VPWR VGND sg13g2_fill_2
XFILLER_38_811 VPWR VGND sg13g2_fill_1
XFILLER_38_888 VPWR VGND sg13g2_decap_8
X_1304_ net159 VPWR _0422_ VGND net116 state\[37\] sg13g2_o21ai_1
X_1235_ _0147_ _0883_ _0884_ net64 _0720_ VPWR VGND sg13g2_a22oi_1
X_1166_ VGND VPWR net94 daisychain\[1\] _0833_ net69 sg13g2_a21oi_1
X_1097_ VPWR _0766_ daisychain\[65\] VGND sg13g2_inv_1
XFILLER_20_243 VPWR VGND sg13g2_fill_2
XFILLER_20_276 VPWR VGND sg13g2_decap_4
X_1999_ net200 VGND VPWR _0331_ state\[75\] clknet_leaf_2_clk sg13g2_dfrbpq_1
XFILLER_0_659 VPWR VGND sg13g2_decap_8
XFILLER_16_538 VPWR VGND sg13g2_fill_2
XFILLER_18_32 VPWR VGND sg13g2_decap_8
XFILLER_18_76 VPWR VGND sg13g2_decap_8
XFILLER_43_357 VPWR VGND sg13g2_decap_8
XFILLER_44_869 VPWR VGND sg13g2_decap_8
XFILLER_11_254 VPWR VGND sg13g2_decap_8
XFILLER_12_766 VPWR VGND sg13g2_fill_1
XFILLER_34_53 VPWR VGND sg13g2_decap_8
XFILLER_7_203 VPWR VGND sg13g2_decap_8
XFILLER_3_431 VPWR VGND sg13g2_decap_8
XFILLER_4_921 VPWR VGND sg13g2_decap_4
XFILLER_46_140 VPWR VGND sg13g2_decap_8
XFILLER_47_630 VPWR VGND sg13g2_decap_8
X_1020_ VPWR _0015_ state\[113\] VGND sg13g2_inv_1
X_1922_ net190 VGND VPWR _0254_ daisychain\[126\] clknet_leaf_0_clk sg13g2_dfrbpq_1
XFILLER_30_552 VPWR VGND sg13g2_fill_2
XFILLER_30_585 VPWR VGND sg13g2_fill_2
X_1853_ net194 VGND VPWR _0185_ daisychain\[57\] clknet_leaf_14_clk sg13g2_dfrbpq_1
X_1784_ _0660_ VPWR _0372_ VGND net185 _0018_ sg13g2_o21ai_1
XFILLER_29_118 VPWR VGND sg13g2_decap_8
XFILLER_41_0 VPWR VGND sg13g2_decap_8
XFILLER_6_291 VPWR VGND sg13g2_decap_8
XFILLER_37_140 VPWR VGND sg13g2_decap_8
XFILLER_38_696 VPWR VGND sg13g2_decap_4
X_1218_ VGND VPWR net92 daisychain\[14\] _0872_ net66 sg13g2_a21oi_1
X_1149_ VPWR _0818_ daisychain\[117\] VGND sg13g2_inv_1
XFILLER_20_22 VPWR VGND sg13g2_fill_1
XFILLER_4_228 VPWR VGND sg13g2_decap_8
XFILLER_5_718 VPWR VGND sg13g2_decap_8
XFILLER_0_434 VPWR VGND sg13g2_decap_8
XFILLER_17_814 VPWR VGND sg13g2_fill_2
XFILLER_28_140 VPWR VGND sg13g2_decap_8
XFILLER_29_20 VPWR VGND sg13g2_decap_8
XFILLER_29_97 VPWR VGND sg13g2_decap_8
XFILLER_48_427 VPWR VGND sg13g2_decap_8
XFILLER_43_154 VPWR VGND sg13g2_decap_8
XFILLER_44_644 VPWR VGND sg13g2_decap_8
XFILLER_45_63 VPWR VGND sg13g2_decap_8
XFILLER_6_46 VPWR VGND sg13g2_decap_8
XFILLER_8_523 VPWR VGND sg13g2_fill_1
XFILLER_4_795 VPWR VGND sg13g2_decap_8
XFILLER_13_4 VPWR VGND sg13g2_fill_1
XFILLER_35_600 VPWR VGND sg13g2_decap_4
X_2052_ ena net10 VPWR VGND sg13g2_buf_1
X_1003_ VPWR _0123_ state\[96\] VGND sg13g2_inv_1
XFILLER_15_390 VPWR VGND sg13g2_fill_2
XFILLER_31_883 VPWR VGND sg13g2_decap_4
XFILLER_34_165 VPWR VGND sg13g2_decap_8
X_1905_ net226 VGND VPWR _0237_ daisychain\[109\] clknet_leaf_7_clk sg13g2_dfrbpq_1
X_1836_ net206 VGND VPWR _0168_ daisychain\[40\] clknet_leaf_13_clk sg13g2_dfrbpq_1
X_1767_ _0609_ VPWR _0355_ VGND net172 _0126_ sg13g2_o21ai_1
X_1698_ _0402_ VPWR _0286_ VGND net166 _0051_ sg13g2_o21ai_1
XFILLER_13_316 VPWR VGND sg13g2_decap_8
XFILLER_13_327 VPWR VGND sg13g2_fill_2
XFILLER_25_132 VPWR VGND sg13g2_decap_8
XFILLER_41_614 VPWR VGND sg13g2_decap_8
XFILLER_31_32 VPWR VGND sg13g2_decap_8
XFILLER_40_168 VPWR VGND sg13g2_decap_8
XFILLER_5_515 VPWR VGND sg13g2_decap_8
XFILLER_0_231 VPWR VGND sg13g2_decap_8
XFILLER_1_732 VPWR VGND sg13g2_decap_8
Xoutput32 net32 uo_out[6] VPWR VGND sg13g2_buf_1
Xoutput21 net21 uio_out[3] VPWR VGND sg13g2_buf_1
Xoutput10 net10 uio_oe[0] VPWR VGND sg13g2_buf_1
XFILLER_44_441 VPWR VGND sg13g2_decap_8
XFILLER_48_224 VPWR VGND sg13g2_decap_8
XFILLER_13_850 VPWR VGND sg13g2_decap_8
XFILLER_16_154 VPWR VGND sg13g2_decap_8
XFILLER_31_102 VPWR VGND sg13g2_decap_8
XFILLER_31_179 VPWR VGND sg13g2_decap_8
XFILLER_32_614 VPWR VGND sg13g2_decap_8
XFILLER_32_625 VPWR VGND sg13g2_fill_1
XFILLER_9_854 VPWR VGND sg13g2_decap_8
XFILLER_8_375 VPWR VGND sg13g2_decap_8
X_1621_ _0817_ net142 _0659_ _0660_ VPWR VGND sg13g2_a21o_1
X_1552_ net171 VPWR _0608_ VGND net126 state\[99\] sg13g2_o21ai_1
XFILLER_39_224 VPWR VGND sg13g2_decap_8
XFILLER_4_592 VPWR VGND sg13g2_decap_8
X_1483_ _0209_ _0555_ _0556_ net58 _0782_ VPWR VGND sg13g2_a22oi_1
XFILLER_22_102 VPWR VGND sg13g2_decap_8
X_2035_ net227 VGND VPWR _0367_ state\[111\] clknet_leaf_7_clk sg13g2_dfrbpq_1
XFILLER_22_179 VPWR VGND sg13g2_decap_8
XFILLER_30_190 VPWR VGND sg13g2_decap_8
XFILLER_2_529 VPWR VGND sg13g2_decap_8
X_1819_ net217 VGND VPWR _0151_ daisychain\[23\] clknet_leaf_11_clk sg13g2_dfrbpq_1
XFILLER_45_238 VPWR VGND sg13g2_decap_8
XFILLER_46_728 VPWR VGND sg13g2_decap_8
XFILLER_13_135 VPWR VGND sg13g2_decap_8
XFILLER_14_614 VPWR VGND sg13g2_decap_4
XFILLER_26_54 VPWR VGND sg13g2_decap_8
XFILLER_41_444 VPWR VGND sg13g2_decap_8
XFILLER_42_42 VPWR VGND sg13g2_decap_8
XFILLER_21_190 VPWR VGND sg13g2_decap_8
XFILLER_5_312 VPWR VGND sg13g2_decap_8
XFILLER_5_389 VPWR VGND sg13g2_decap_8
XFILLER_6_846 VPWR VGND sg13g2_decap_8
XFILLER_3_25 VPWR VGND sg13g2_decap_8
XFILLER_49_555 VPWR VGND sg13g2_decap_8
XFILLER_36_249 VPWR VGND sg13g2_decap_8
XFILLER_8_172 VPWR VGND sg13g2_decap_8
X_0983_ VPWR _0101_ state\[76\] VGND sg13g2_inv_1
XFILLER_9_695 VPWR VGND sg13g2_decap_4
XFILLER_9_662 VPWR VGND sg13g2_decap_8
Xfanout107 net108 net107 VPWR VGND sg13g2_buf_1
Xfanout118 net119 net118 VPWR VGND sg13g2_buf_1
Xfanout129 net145 net129 VPWR VGND sg13g2_buf_1
X_1604_ net187 VPWR _0647_ VGND net144 state\[112\] sg13g2_o21ai_1
X_1535_ _0222_ _0594_ _0595_ net62 _0795_ VPWR VGND sg13g2_a22oi_1
X_1466_ VGND VPWR net82 daisychain\[76\] _0544_ net45 sg13g2_a21oi_1
X_1397_ _0761_ net104 _0491_ _0492_ VPWR VGND sg13g2_a21o_1
X_2018_ net213 VGND VPWR _0350_ state\[94\] clknet_leaf_4_clk sg13g2_dfrbpq_1
XFILLER_10_127 VPWR VGND sg13g2_decap_8
XFILLER_3_816 VPWR VGND sg13g2_decap_8
XFILLER_6_109 VPWR VGND sg13g2_decap_8
XFILLER_2_326 VPWR VGND sg13g2_decap_8
XFILLER_18_216 VPWR VGND sg13g2_decap_8
XFILLER_26_271 VPWR VGND sg13g2_fill_2
XFILLER_37_42 VPWR VGND sg13g2_decap_8
XFILLER_46_525 VPWR VGND sg13g2_decap_8
XFILLER_10_650 VPWR VGND sg13g2_fill_1
XFILLER_30_904 VPWR VGND sg13g2_decap_8
XFILLER_41_252 VPWR VGND sg13g2_decap_8
XFILLER_42_764 VPWR VGND sg13g2_decap_8
XFILLER_45_7 VPWR VGND sg13g2_decap_8
XFILLER_5_186 VPWR VGND sg13g2_decap_8
X_1320_ net159 VPWR _0434_ VGND net116 state\[41\] sg13g2_o21ai_1
XFILLER_1_392 VPWR VGND sg13g2_decap_8
XFILLER_2_893 VPWR VGND sg13g2_decap_8
XFILLER_37_525 VPWR VGND sg13g2_decap_4
X_1251_ _0151_ _0895_ _0896_ net64 _0724_ VPWR VGND sg13g2_a22oi_1
X_1182_ VGND VPWR net93 daisychain\[5\] _0845_ net67 sg13g2_a21oi_1
XFILLER_18_794 VPWR VGND sg13g2_decap_4
XFILLER_20_436 VPWR VGND sg13g2_decap_8
X_0966_ VPWR _0082_ state\[59\] VGND sg13g2_inv_1
XFILLER_9_492 VPWR VGND sg13g2_decap_8
X_1518_ VGND VPWR net90 daisychain\[89\] _0583_ net57 sg13g2_a21oi_1
X_1449_ _0774_ net110 _0530_ _0531_ VPWR VGND sg13g2_a21o_1
XFILLER_15_208 VPWR VGND sg13g2_decap_8
XFILLER_43_539 VPWR VGND sg13g2_decap_8
XFILLER_11_425 VPWR VGND sg13g2_decap_8
XFILLER_12_915 VPWR VGND sg13g2_decap_8
XFILLER_12_926 VPWR VGND sg13g2_fill_1
XFILLER_2_123 VPWR VGND sg13g2_decap_8
XFILLER_3_613 VPWR VGND sg13g2_decap_8
XFILLER_46_322 VPWR VGND sg13g2_decap_8
XFILLER_47_812 VPWR VGND sg13g2_decap_8
XFILLER_48_63 VPWR VGND sg13g2_decap_8
XFILLER_15_764 VPWR VGND sg13g2_decap_8
XFILLER_34_506 VPWR VGND sg13g2_fill_1
XFILLER_46_399 VPWR VGND sg13g2_decap_8
XFILLER_47_889 VPWR VGND sg13g2_decap_8
XFILLER_14_285 VPWR VGND sg13g2_decap_8
XFILLER_9_46 VPWR VGND sg13g2_decap_8
XFILLER_2_690 VPWR VGND sg13g2_decap_8
XFILLER_6_473 VPWR VGND sg13g2_decap_8
X_1303_ _0164_ _0420_ _0421_ net52 _0737_ VPWR VGND sg13g2_a22oi_1
XFILLER_37_322 VPWR VGND sg13g2_decap_4
XFILLER_38_834 VPWR VGND sg13g2_decap_8
XFILLER_49_193 VPWR VGND sg13g2_decap_8
X_1234_ VGND VPWR net92 daisychain\[18\] _0884_ net64 sg13g2_a21oi_1
X_1165_ _0703_ net133 _0831_ _0832_ VPWR VGND sg13g2_a21o_1
X_1096_ VPWR _0765_ daisychain\[64\] VGND sg13g2_inv_1
X_1998_ net200 VGND VPWR _0330_ state\[74\] clknet_leaf_2_clk sg13g2_dfrbpq_1
X_0949_ VPWR _0064_ state\[42\] VGND sg13g2_inv_1
XFILLER_0_638 VPWR VGND sg13g2_decap_8
XFILLER_47_119 VPWR VGND sg13g2_decap_8
XFILLER_48_609 VPWR VGND sg13g2_decap_8
XFILLER_18_55 VPWR VGND sg13g2_decap_8
XFILLER_34_32 VPWR VGND sg13g2_decap_8
XFILLER_43_336 VPWR VGND sg13g2_decap_8
XFILLER_44_848 VPWR VGND sg13g2_decap_8
XFILLER_11_233 VPWR VGND sg13g2_decap_8
XFILLER_12_745 VPWR VGND sg13g2_fill_2
XFILLER_4_900 VPWR VGND sg13g2_decap_8
XFILLER_7_259 VPWR VGND sg13g2_decap_8
XFILLER_1_0 VPWR VGND sg13g2_decap_8
XFILLER_3_410 VPWR VGND sg13g2_decap_8
XFILLER_3_487 VPWR VGND sg13g2_decap_8
XFILLER_15_8 VPWR VGND sg13g2_fill_1
XFILLER_38_119 VPWR VGND sg13g2_decap_8
XFILLER_47_686 VPWR VGND sg13g2_decap_8
XFILLER_34_336 VPWR VGND sg13g2_decap_4
XFILLER_46_196 VPWR VGND sg13g2_decap_8
X_1921_ net190 VGND VPWR _0253_ daisychain\[125\] clknet_leaf_0_clk sg13g2_dfrbpq_1
X_1852_ net193 VGND VPWR _0184_ daisychain\[56\] clknet_leaf_14_clk sg13g2_dfrbpq_1
XFILLER_6_270 VPWR VGND sg13g2_decap_8
X_1783_ _0657_ VPWR _0371_ VGND net185 _0017_ sg13g2_o21ai_1
XFILLER_1_91 VPWR VGND sg13g2_decap_8
XFILLER_37_196 VPWR VGND sg13g2_decap_8
X_1217_ _0716_ net132 _0870_ _0871_ VPWR VGND sg13g2_a21o_1
X_1148_ VPWR _0817_ daisychain\[116\] VGND sg13g2_inv_1
X_1079_ VPWR _0748_ daisychain\[47\] VGND sg13g2_inv_1
XFILLER_33_380 VPWR VGND sg13g2_decap_8
XFILLER_0_413 VPWR VGND sg13g2_decap_8
XFILLER_1_914 VPWR VGND sg13g2_decap_8
XFILLER_1_925 VPWR VGND sg13g2_fill_2
XFILLER_20_34 VPWR VGND sg13g2_fill_1
XFILLER_4_207 VPWR VGND sg13g2_decap_8
XFILLER_29_76 VPWR VGND sg13g2_decap_8
XFILLER_44_623 VPWR VGND sg13g2_decap_8
XFILLER_48_406 VPWR VGND sg13g2_decap_8
XFILLER_12_553 VPWR VGND sg13g2_fill_1
XFILLER_12_564 VPWR VGND sg13g2_decap_8
XFILLER_28_196 VPWR VGND sg13g2_decap_8
XFILLER_40_851 VPWR VGND sg13g2_fill_1
XFILLER_43_133 VPWR VGND sg13g2_decap_8
XFILLER_45_42 VPWR VGND sg13g2_decap_8
XFILLER_6_25 VPWR VGND sg13g2_decap_8
XFILLER_3_284 VPWR VGND sg13g2_decap_8
XFILLER_4_774 VPWR VGND sg13g2_decap_8
XFILLER_34_144 VPWR VGND sg13g2_decap_8
XFILLER_35_645 VPWR VGND sg13g2_decap_8
XFILLER_47_483 VPWR VGND sg13g2_decap_8
X_2051_ net192 VGND VPWR _0383_ state\[127\] clknet_leaf_1_clk sg13g2_dfrbpq_1
X_1002_ VPWR _0122_ state\[95\] VGND sg13g2_inv_1
X_1904_ net226 VGND VPWR _0236_ daisychain\[108\] clknet_leaf_6_clk sg13g2_dfrbpq_1
X_1835_ net206 VGND VPWR _0167_ daisychain\[39\] clknet_leaf_13_clk sg13g2_dfrbpq_1
X_1766_ _0606_ VPWR _0354_ VGND net171 _0125_ sg13g2_o21ai_1
X_1697_ _0399_ VPWR _0285_ VGND net165 _0049_ sg13g2_o21ai_1
XFILLER_15_89 VPWR VGND sg13g2_decap_8
XFILLER_25_111 VPWR VGND sg13g2_decap_8
XFILLER_25_188 VPWR VGND sg13g2_decap_8
XFILLER_40_147 VPWR VGND sg13g2_decap_8
XFILLER_31_11 VPWR VGND sg13g2_decap_8
XFILLER_31_88 VPWR VGND sg13g2_decap_8
XFILLER_0_210 VPWR VGND sg13g2_decap_8
XFILLER_0_287 VPWR VGND sg13g2_decap_8
XFILLER_1_711 VPWR VGND sg13g2_decap_8
XFILLER_1_788 VPWR VGND sg13g2_decap_8
XFILLER_48_203 VPWR VGND sg13g2_decap_8
XFILLER_49_715 VPWR VGND sg13g2_decap_8
Xoutput33 net33 uo_out[7] VPWR VGND sg13g2_buf_1
Xoutput22 net22 uio_out[4] VPWR VGND sg13g2_buf_1
Xoutput11 net11 uio_oe[1] VPWR VGND sg13g2_buf_1
XFILLER_16_133 VPWR VGND sg13g2_decap_8
XFILLER_17_601 VPWR VGND sg13g2_fill_2
XFILLER_17_634 VPWR VGND sg13g2_fill_2
XFILLER_44_420 VPWR VGND sg13g2_decap_8
XFILLER_45_910 VPWR VGND sg13g2_decap_8
XFILLER_12_350 VPWR VGND sg13g2_fill_2
XFILLER_12_361 VPWR VGND sg13g2_decap_8
XFILLER_13_884 VPWR VGND sg13g2_fill_1
XFILLER_31_158 VPWR VGND sg13g2_decap_8
XFILLER_44_497 VPWR VGND sg13g2_decap_8
XFILLER_8_354 VPWR VGND sg13g2_decap_8
XFILLER_9_844 VPWR VGND sg13g2_fill_2
XFILLER_4_571 VPWR VGND sg13g2_decap_8
X_1620_ net186 VPWR _0659_ VGND net142 state\[116\] sg13g2_o21ai_1
X_1551_ _0226_ _0606_ _0607_ net60 _0799_ VPWR VGND sg13g2_a22oi_1
X_1482_ VGND VPWR net90 daisychain\[80\] _0556_ net58 sg13g2_a21oi_1
XFILLER_39_203 VPWR VGND sg13g2_decap_8
XFILLER_22_158 VPWR VGND sg13g2_decap_8
XFILLER_47_280 VPWR VGND sg13g2_decap_8
XFILLER_48_792 VPWR VGND sg13g2_decap_8
X_2034_ net227 VGND VPWR _0366_ state\[110\] clknet_leaf_7_clk sg13g2_dfrbpq_1
XFILLER_10_309 VPWR VGND sg13g2_decap_8
X_1818_ net217 VGND VPWR _0150_ daisychain\[22\] clknet_leaf_11_clk sg13g2_dfrbpq_1
XFILLER_2_508 VPWR VGND sg13g2_decap_8
X_1749_ _0555_ VPWR _0337_ VGND net170 _0107_ sg13g2_o21ai_1
XFILLER_38_280 VPWR VGND sg13g2_decap_8
XFILLER_45_217 VPWR VGND sg13g2_decap_8
XFILLER_46_707 VPWR VGND sg13g2_decap_8
Xdigitalen3.g\[0\].u.inv1 VPWR digitalen3.g\[0\].u.OUTN net9 VGND sg13g2_inv_1
XFILLER_13_114 VPWR VGND sg13g2_decap_8
XFILLER_41_423 VPWR VGND sg13g2_decap_8
XFILLER_42_21 VPWR VGND sg13g2_decap_8
XFILLER_42_98 VPWR VGND sg13g2_decap_8
XFILLER_5_368 VPWR VGND sg13g2_decap_8
XFILLER_6_836 VPWR VGND sg13g2_decap_4
XFILLER_1_585 VPWR VGND sg13g2_decap_8
XFILLER_49_534 VPWR VGND sg13g2_decap_8
XFILLER_17_442 VPWR VGND sg13g2_decap_8
XFILLER_17_475 VPWR VGND sg13g2_fill_1
XFILLER_32_412 VPWR VGND sg13g2_decap_4
XFILLER_36_228 VPWR VGND sg13g2_decap_8
XFILLER_44_294 VPWR VGND sg13g2_decap_8
XFILLER_45_784 VPWR VGND sg13g2_decap_8
XFILLER_8_151 VPWR VGND sg13g2_decap_8
X_0982_ VPWR _0100_ state\[75\] VGND sg13g2_inv_1
Xfanout108 net114 net108 VPWR VGND sg13g2_buf_1
Xfanout119 net121 net119 VPWR VGND sg13g2_buf_1
X_1603_ _0239_ _0645_ _0646_ net73 _0812_ VPWR VGND sg13g2_a22oi_1
X_1534_ VGND VPWR net88 daisychain\[93\] _0595_ net59 sg13g2_a21oi_1
X_1465_ _0778_ net112 _0542_ _0543_ VPWR VGND sg13g2_a21o_1
X_2017_ net213 VGND VPWR _0349_ state\[93\] clknet_leaf_3_clk sg13g2_dfrbpq_1
X_1396_ net148 VPWR _0491_ VGND net104 state\[60\] sg13g2_o21ai_1
XFILLER_10_106 VPWR VGND sg13g2_decap_8
XFILLER_12_13 VPWR VGND sg13g2_decap_8
XFILLER_12_35 VPWR VGND sg13g2_decap_8
XFILLER_2_305 VPWR VGND sg13g2_decap_8
XFILLER_37_21 VPWR VGND sg13g2_decap_8
XFILLER_46_504 VPWR VGND sg13g2_decap_8
XFILLER_26_283 VPWR VGND sg13g2_fill_1
XFILLER_37_98 VPWR VGND sg13g2_decap_8
XFILLER_41_231 VPWR VGND sg13g2_decap_8
XFILLER_42_743 VPWR VGND sg13g2_decap_8
XFILLER_1_371 VPWR VGND sg13g2_decap_8
XFILLER_2_872 VPWR VGND sg13g2_decap_8
XFILLER_38_7 VPWR VGND sg13g2_decap_8
XFILLER_5_165 VPWR VGND sg13g2_decap_8
XFILLER_6_655 VPWR VGND sg13g2_decap_4
XFILLER_6_677 VPWR VGND sg13g2_decap_8
XFILLER_6_688 VPWR VGND sg13g2_fill_1
XFILLER_18_751 VPWR VGND sg13g2_decap_8
XFILLER_49_375 VPWR VGND sg13g2_decap_8
X_1250_ VGND VPWR net92 daisychain\[22\] _0896_ net64 sg13g2_a21oi_1