* NGSPICE file created from heichips25_template.ext - technology: ihp-sg13g2

* Black-box entry subcircuit for sg13g2_decap_8 abstract view
.subckt sg13g2_decap_8 VDD VSS
.ends

* Black-box entry subcircuit for sg13g2_fill_2 abstract view
.subckt sg13g2_fill_2 VDD VSS
.ends

* Black-box entry subcircuit for sg13g2_tielo abstract view
.subckt sg13g2_tielo VDD VSS L_LO
.ends

* Black-box entry subcircuit for sg13g2_fill_1 abstract view
.subckt sg13g2_fill_1 VDD VSS
.ends

.subckt heichips25_template VGND VPWR analog_pin0 analog_pin1 analog_pin2 analog_pin3
+ clk ena rst_n ui_in[0] ui_in[1] ui_in[2] ui_in[3] ui_in[4] ui_in[5] ui_in[6] ui_in[7]
+ uio_in[0] uio_in[1] uio_in[2] uio_in[3] uio_in[4] uio_in[5] uio_in[6] uio_in[7]
+ uio_oe[0] uio_oe[1] uio_oe[2] uio_oe[3] uio_oe[4] uio_oe[5] uio_oe[6] uio_oe[7]
+ uio_out[0] uio_out[1] uio_out[2] uio_out[3] uio_out[4] uio_out[5] uio_out[6] uio_out[7]
+ uo_out[0] uo_out[1] uo_out[2] uo_out[3] uo_out[4] uo_out[5] uo_out[6] uo_out[7]
XFILLER_28_907 VPWR VGND sg13g2_decap_8
XFILLER_39_266 VPWR VGND sg13g2_decap_8
XFILLER_27_406 VPWR VGND sg13g2_decap_8
XFILLER_36_973 VPWR VGND sg13g2_decap_8
XFILLER_35_483 VPWR VGND sg13g2_decap_8
XFILLER_23_634 VPWR VGND sg13g2_decap_8
XFILLER_22_144 VPWR VGND sg13g2_decap_8
XFILLER_7_7 VPWR VGND sg13g2_decap_8
XFILLER_19_907 VPWR VGND sg13g2_decap_8
XFILLER_18_417 VPWR VGND sg13g2_decap_8
XFILLER_45_203 VPWR VGND sg13g2_decap_8
XFILLER_27_973 VPWR VGND sg13g2_decap_8
XFILLER_42_910 VPWR VGND sg13g2_decap_8
XFILLER_26_74 VPWR VGND sg13g2_decap_8
XFILLER_14_634 VPWR VGND sg13g2_decap_8
XFILLER_41_420 VPWR VGND sg13g2_decap_8
XFILLER_26_494 VPWR VGND sg13g2_decap_8
XFILLER_13_144 VPWR VGND sg13g2_decap_8
XFILLER_42_987 VPWR VGND sg13g2_decap_8
XFILLER_9_137 VPWR VGND sg13g2_decap_8
XFILLER_41_497 VPWR VGND sg13g2_decap_8
XFILLER_10_851 VPWR VGND sg13g2_decap_8
XFILLER_42_84 VPWR VGND sg13g2_decap_8
XFILLER_6_844 VPWR VGND sg13g2_decap_8
XFILLER_5_354 VPWR VGND sg13g2_decap_8
XFILLER_1_560 VPWR VGND sg13g2_decap_8
XFILLER_3_67 VPWR VGND sg13g2_decap_8
XFILLER_49_553 VPWR VGND sg13g2_decap_8
XFILLER_36_203 VPWR VGND sg13g2_decap_8
XFILLER_17_483 VPWR VGND sg13g2_decap_8
XFILLER_45_770 VPWR VGND sg13g2_decap_8
XFILLER_33_910 VPWR VGND sg13g2_decap_8
XFILLER_18_984 VPWR VGND sg13g2_decap_8
XFILLER_44_280 VPWR VGND sg13g2_decap_8
XFILLER_32_420 VPWR VGND sg13g2_decap_8
XFILLER_33_987 VPWR VGND sg13g2_decap_8
XFILLER_32_497 VPWR VGND sg13g2_decap_8
XFILLER_20_648 VPWR VGND sg13g2_decap_8
XFILLER_28_704 VPWR VGND sg13g2_decap_8
XFILLER_27_203 VPWR VGND sg13g2_decap_8
XFILLER_43_707 VPWR VGND sg13g2_decap_8
XFILLER_42_217 VPWR VGND sg13g2_decap_8
XFILLER_36_770 VPWR VGND sg13g2_decap_8
XFILLER_24_921 VPWR VGND sg13g2_decap_8
XFILLER_35_280 VPWR VGND sg13g2_decap_8
XFILLER_23_431 VPWR VGND sg13g2_decap_8
XFILLER_24_998 VPWR VGND sg13g2_decap_8
XFILLER_11_648 VPWR VGND sg13g2_decap_8
XFILLER_10_158 VPWR VGND sg13g2_decap_8
XFILLER_12_32 VPWR VGND sg13g2_decap_8
XFILLER_5_4 VPWR VGND sg13g2_decap_8
XFILLER_3_858 VPWR VGND sg13g2_decap_8
XFILLER_2_368 VPWR VGND sg13g2_decap_8
XFILLER_19_704 VPWR VGND sg13g2_decap_8
XFILLER_18_214 VPWR VGND sg13g2_decap_8
XFILLER_46_567 VPWR VGND sg13g2_decap_8
XFILLER_37_84 VPWR VGND sg13g2_decap_8
XFILLER_34_707 VPWR VGND sg13g2_decap_8
XFILLER_15_921 VPWR VGND sg13g2_decap_8
XFILLER_33_217 VPWR VGND sg13g2_decap_8
XFILLER_27_770 VPWR VGND sg13g2_decap_8
XFILLER_14_431 VPWR VGND sg13g2_decap_8
XFILLER_26_291 VPWR VGND sg13g2_decap_8
XFILLER_15_998 VPWR VGND sg13g2_decap_8
XFILLER_30_924 VPWR VGND sg13g2_decap_8
XFILLER_18_1026 VPWR VGND sg13g2_fill_2
XFILLER_42_784 VPWR VGND sg13g2_decap_8
XFILLER_41_294 VPWR VGND sg13g2_decap_8
XFILLER_6_641 VPWR VGND sg13g2_decap_8
XFILLER_5_151 VPWR VGND sg13g2_decap_8
XFILLER_25_1019 VPWR VGND sg13g2_decap_8
XFILLER_49_350 VPWR VGND sg13g2_decap_8
XFILLER_37_567 VPWR VGND sg13g2_decap_8
XFILLER_25_718 VPWR VGND sg13g2_decap_8
XFILLER_18_781 VPWR VGND sg13g2_decap_8
XFILLER_17_280 VPWR VGND sg13g2_decap_8
XFILLER_24_228 VPWR VGND sg13g2_decap_8
XFILLER_33_784 VPWR VGND sg13g2_decap_8
XFILLER_21_935 VPWR VGND sg13g2_decap_8
XFILLER_32_294 VPWR VGND sg13g2_decap_8
XFILLER_20_445 VPWR VGND sg13g2_decap_8
XFILLER_28_501 VPWR VGND sg13g2_decap_8
XFILLER_16_718 VPWR VGND sg13g2_decap_8
XFILLER_43_504 VPWR VGND sg13g2_decap_8
XFILLER_28_578 VPWR VGND sg13g2_decap_8
XFILLER_15_228 VPWR VGND sg13g2_decap_8
XFILLER_12_935 VPWR VGND sg13g2_decap_8
XFILLER_24_795 VPWR VGND sg13g2_decap_8
XFILLER_11_445 VPWR VGND sg13g2_decap_8
XFILLER_8_928 VPWR VGND sg13g2_decap_8
XFILLER_23_53 VPWR VGND sg13g2_decap_8
XFILLER_7_427 VPWR VGND sg13g2_decap_8
XFILLER_48_1008 VPWR VGND sg13g2_decap_8
XFILLER_3_655 VPWR VGND sg13g2_decap_8
XFILLER_2_165 VPWR VGND sg13g2_decap_8
XFILLER_19_501 VPWR VGND sg13g2_decap_8
XFILLER_0_35 VPWR VGND sg13g2_decap_8
XFILLER_47_854 VPWR VGND sg13g2_decap_8
XFILLER_46_364 VPWR VGND sg13g2_decap_8
XFILLER_34_504 VPWR VGND sg13g2_decap_8
XFILLER_19_578 VPWR VGND sg13g2_decap_8
XFILLER_9_11 VPWR VGND sg13g2_decap_8
XFILLER_15_795 VPWR VGND sg13g2_decap_8
XFILLER_42_581 VPWR VGND sg13g2_decap_8
XFILLER_30_721 VPWR VGND sg13g2_decap_8
XFILLER_9_88 VPWR VGND sg13g2_decap_8
XFILLER_31_1001 VPWR VGND sg13g2_decap_8
XFILLER_30_798 VPWR VGND sg13g2_decap_8
XFILLER_7_994 VPWR VGND sg13g2_decap_8
XFILLER_29_0 VPWR VGND sg13g2_decap_8
XFILLER_38_854 VPWR VGND sg13g2_decap_8
XFILLER_37_364 VPWR VGND sg13g2_decap_8
XFILLER_25_515 VPWR VGND sg13g2_decap_8
XFILLER_40_518 VPWR VGND sg13g2_decap_8
XFILLER_33_581 VPWR VGND sg13g2_decap_8
XFILLER_21_732 VPWR VGND sg13g2_decap_8
XFILLER_20_242 VPWR VGND sg13g2_decap_8
XFILLER_0_658 VPWR VGND sg13g2_decap_8
XFILLER_29_854 VPWR VGND sg13g2_decap_8
XFILLER_18_53 VPWR VGND sg13g2_decap_8
XFILLER_16_515 VPWR VGND sg13g2_decap_8
XFILLER_43_301 VPWR VGND sg13g2_decap_8
XFILLER_28_375 VPWR VGND sg13g2_decap_8
XFILLER_44_868 VPWR VGND sg13g2_decap_8
XFILLER_31_518 VPWR VGND sg13g2_decap_8
XFILLER_43_378 VPWR VGND sg13g2_decap_8
XFILLER_34_63 VPWR VGND sg13g2_decap_8
XFILLER_12_732 VPWR VGND sg13g2_decap_8
XFILLER_24_592 VPWR VGND sg13g2_decap_8
XFILLER_11_242 VPWR VGND sg13g2_decap_8
XFILLER_8_725 VPWR VGND sg13g2_decap_8
XFILLER_7_224 VPWR VGND sg13g2_decap_8
XFILLER_4_942 VPWR VGND sg13g2_decap_8
XFILLER_3_452 VPWR VGND sg13g2_decap_8
XFILLER_47_651 VPWR VGND sg13g2_decap_8
XFILLER_19_375 VPWR VGND sg13g2_decap_8
XFILLER_46_161 VPWR VGND sg13g2_decap_8
XFILLER_34_301 VPWR VGND sg13g2_decap_8
XFILLER_35_868 VPWR VGND sg13g2_decap_8
XFILLER_34_378 VPWR VGND sg13g2_decap_8
XFILLER_22_529 VPWR VGND sg13g2_decap_8
XFILLER_15_592 VPWR VGND sg13g2_decap_8
XFILLER_30_595 VPWR VGND sg13g2_decap_8
XFILLER_7_791 VPWR VGND sg13g2_decap_8
XFILLER_38_651 VPWR VGND sg13g2_decap_8
XFILLER_26_802 VPWR VGND sg13g2_decap_8
XFILLER_37_161 VPWR VGND sg13g2_decap_8
XFILLER_25_312 VPWR VGND sg13g2_decap_8
XFILLER_41_805 VPWR VGND sg13g2_decap_8
XFILLER_26_879 VPWR VGND sg13g2_decap_8
XFILLER_13_529 VPWR VGND sg13g2_decap_8
XFILLER_40_315 VPWR VGND sg13g2_decap_8
XFILLER_25_389 VPWR VGND sg13g2_decap_8
XFILLER_5_739 VPWR VGND sg13g2_decap_8
XFILLER_4_249 VPWR VGND sg13g2_decap_8
XFILLER_20_32 VPWR VGND sg13g2_decap_8
XFILLER_1_945 VPWR VGND sg13g2_decap_8
XFILLER_0_455 VPWR VGND sg13g2_decap_8
XFILLER_49_938 VPWR VGND sg13g2_decap_8
XFILLER_48_448 VPWR VGND sg13g2_decap_8
XFILLER_29_63 VPWR VGND sg13g2_decap_8
XFILLER_29_651 VPWR VGND sg13g2_decap_8
XFILLER_16_312 VPWR VGND sg13g2_decap_8
XFILLER_28_172 VPWR VGND sg13g2_decap_8
XFILLER_44_665 VPWR VGND sg13g2_decap_8
XFILLER_32_805 VPWR VGND sg13g2_decap_8
XFILLER_17_868 VPWR VGND sg13g2_decap_8
XFILLER_16_389 VPWR VGND sg13g2_decap_8
XFILLER_45_84 VPWR VGND sg13g2_decap_8
XFILLER_43_175 VPWR VGND sg13g2_decap_8
XFILLER_31_315 VPWR VGND sg13g2_decap_8
XFILLER_8_522 VPWR VGND sg13g2_decap_8
XFILLER_40_882 VPWR VGND sg13g2_decap_8
XFILLER_6_67 VPWR VGND sg13g2_decap_8
XFILLER_8_599 VPWR VGND sg13g2_decap_8
XFILLER_6_1005 VPWR VGND sg13g2_decap_8
XFILLER_20_4 VPWR VGND sg13g2_decap_8
XFILLER_39_448 VPWR VGND sg13g2_decap_8
XFILLER_26_109 VPWR VGND sg13g2_decap_8
XFILLER_19_172 VPWR VGND sg13g2_decap_8
XFILLER_35_665 VPWR VGND sg13g2_decap_8
XFILLER_34_175 VPWR VGND sg13g2_decap_8
XFILLER_23_816 VPWR VGND sg13g2_decap_8
XFILLER_22_326 VPWR VGND sg13g2_decap_8
XFILLER_31_882 VPWR VGND sg13g2_decap_8
XFILLER_30_392 VPWR VGND sg13g2_decap_8
XFILLER_44_1022 VPWR VGND sg13g2_decap_8
Xheichips25_template_10 VPWR VGND uo_out[4] sg13g2_tielo
Xheichips25_template_21 VPWR VGND uio_oe[7] sg13g2_tielo
XFILLER_14_816 VPWR VGND sg13g2_decap_8
XFILLER_15_32 VPWR VGND sg13g2_decap_8
XFILLER_41_602 VPWR VGND sg13g2_decap_8
XFILLER_26_676 VPWR VGND sg13g2_decap_8
XFILLER_13_326 VPWR VGND sg13g2_decap_8
XFILLER_40_112 VPWR VGND sg13g2_decap_8
XFILLER_25_186 VPWR VGND sg13g2_decap_8
XFILLER_9_319 VPWR VGND sg13g2_decap_8
XFILLER_41_679 VPWR VGND sg13g2_decap_8
XFILLER_40_189 VPWR VGND sg13g2_decap_8
XFILLER_22_893 VPWR VGND sg13g2_decap_8
XFILLER_31_42 VPWR VGND sg13g2_decap_8
XFILLER_5_536 VPWR VGND sg13g2_decap_8
XFILLER_1_742 VPWR VGND sg13g2_decap_8
XFILLER_0_252 VPWR VGND sg13g2_decap_8
XFILLER_49_735 VPWR VGND sg13g2_decap_8
XFILLER_48_245 VPWR VGND sg13g2_decap_8
XFILLER_45_952 VPWR VGND sg13g2_decap_8
XFILLER_17_665 VPWR VGND sg13g2_decap_8
XFILLER_44_462 VPWR VGND sg13g2_decap_8
XFILLER_32_602 VPWR VGND sg13g2_decap_8
XFILLER_16_186 VPWR VGND sg13g2_decap_8
XFILLER_31_112 VPWR VGND sg13g2_decap_8
XFILLER_32_679 VPWR VGND sg13g2_decap_8
XFILLER_13_893 VPWR VGND sg13g2_decap_8
XFILLER_31_189 VPWR VGND sg13g2_decap_8
XFILLER_9_886 VPWR VGND sg13g2_decap_8
XFILLER_8_396 VPWR VGND sg13g2_decap_8
XFILLER_28_1028 VPWR VGND sg13g2_fill_1
XFILLER_39_245 VPWR VGND sg13g2_decap_8
XFILLER_36_952 VPWR VGND sg13g2_decap_8
XFILLER_35_462 VPWR VGND sg13g2_decap_8
XFILLER_23_613 VPWR VGND sg13g2_decap_8
XFILLER_22_123 VPWR VGND sg13g2_decap_8
XFILLER_46_749 VPWR VGND sg13g2_decap_8
XFILLER_45_259 VPWR VGND sg13g2_decap_8
XFILLER_27_952 VPWR VGND sg13g2_decap_8
XFILLER_14_613 VPWR VGND sg13g2_decap_8
XFILLER_26_53 VPWR VGND sg13g2_decap_8
XFILLER_26_473 VPWR VGND sg13g2_decap_8
XFILLER_13_123 VPWR VGND sg13g2_decap_8
XFILLER_42_966 VPWR VGND sg13g2_decap_8
XFILLER_9_116 VPWR VGND sg13g2_decap_8
XFILLER_41_476 VPWR VGND sg13g2_decap_8
XFILLER_10_830 VPWR VGND sg13g2_decap_8
XFILLER_42_63 VPWR VGND sg13g2_decap_8
XFILLER_22_690 VPWR VGND sg13g2_decap_8
XFILLER_6_823 VPWR VGND sg13g2_decap_8
XFILLER_5_333 VPWR VGND sg13g2_decap_8
XFILLER_3_46 VPWR VGND sg13g2_decap_8
XFILLER_49_532 VPWR VGND sg13g2_decap_8
XFILLER_3_1019 VPWR VGND sg13g2_decap_8
XFILLER_37_749 VPWR VGND sg13g2_decap_8
XFILLER_36_259 VPWR VGND sg13g2_decap_8
XFILLER_18_963 VPWR VGND sg13g2_decap_8
XFILLER_17_462 VPWR VGND sg13g2_decap_8
XFILLER_33_966 VPWR VGND sg13g2_decap_8
XFILLER_32_476 VPWR VGND sg13g2_decap_8
XFILLER_20_627 VPWR VGND sg13g2_decap_8
XFILLER_13_690 VPWR VGND sg13g2_decap_8
XFILLER_9_683 VPWR VGND sg13g2_decap_8
XFILLER_8_193 VPWR VGND sg13g2_decap_8
XFILLER_27_259 VPWR VGND sg13g2_decap_8
XFILLER_24_900 VPWR VGND sg13g2_decap_8
XFILLER_23_410 VPWR VGND sg13g2_decap_8
XFILLER_24_977 VPWR VGND sg13g2_decap_8
XFILLER_11_627 VPWR VGND sg13g2_decap_8
XFILLER_23_487 VPWR VGND sg13g2_decap_8
XFILLER_10_137 VPWR VGND sg13g2_decap_8
XFILLER_12_11 VPWR VGND sg13g2_decap_8
XFILLER_7_609 VPWR VGND sg13g2_decap_8
XFILLER_12_88 VPWR VGND sg13g2_decap_8
XFILLER_3_837 VPWR VGND sg13g2_decap_8
XFILLER_2_347 VPWR VGND sg13g2_decap_8
XFILLER_46_546 VPWR VGND sg13g2_decap_8
XFILLER_37_63 VPWR VGND sg13g2_decap_8
XFILLER_15_900 VPWR VGND sg13g2_decap_8
XFILLER_14_410 VPWR VGND sg13g2_decap_8
XFILLER_26_270 VPWR VGND sg13g2_decap_8
XFILLER_15_977 VPWR VGND sg13g2_decap_8
XFILLER_42_763 VPWR VGND sg13g2_decap_8
XFILLER_30_903 VPWR VGND sg13g2_decap_8
XFILLER_18_1005 VPWR VGND sg13g2_decap_8
XFILLER_14_487 VPWR VGND sg13g2_decap_8
XFILLER_41_273 VPWR VGND sg13g2_decap_8
XFILLER_6_620 VPWR VGND sg13g2_decap_8
XFILLER_5_130 VPWR VGND sg13g2_decap_8
XFILLER_6_697 VPWR VGND sg13g2_decap_8
XFILLER_37_546 VPWR VGND sg13g2_decap_8
XFILLER_24_207 VPWR VGND sg13g2_decap_8
XFILLER_18_760 VPWR VGND sg13g2_decap_8
XFILLER_33_763 VPWR VGND sg13g2_decap_8
XFILLER_21_914 VPWR VGND sg13g2_decap_8
XFILLER_32_273 VPWR VGND sg13g2_decap_8
XFILLER_20_424 VPWR VGND sg13g2_decap_8
XFILLER_9_480 VPWR VGND sg13g2_decap_8
XFILLER_28_557 VPWR VGND sg13g2_decap_8
XFILLER_15_207 VPWR VGND sg13g2_decap_8
XFILLER_12_914 VPWR VGND sg13g2_decap_8
XFILLER_11_424 VPWR VGND sg13g2_decap_8
XFILLER_24_774 VPWR VGND sg13g2_decap_8
XFILLER_7_406 VPWR VGND sg13g2_decap_8
XFILLER_8_907 VPWR VGND sg13g2_decap_8
XFILLER_23_32 VPWR VGND sg13g2_decap_8
XFILLER_23_284 VPWR VGND sg13g2_decap_8
XFILLER_20_991 VPWR VGND sg13g2_decap_8
XFILLER_3_634 VPWR VGND sg13g2_decap_8
XFILLER_2_144 VPWR VGND sg13g2_decap_8
XFILLER_47_833 VPWR VGND sg13g2_decap_8
XFILLER_48_84 VPWR VGND sg13g2_decap_8
XFILLER_0_14 VPWR VGND sg13g2_decap_8
XFILLER_46_343 VPWR VGND sg13g2_decap_8
XFILLER_19_557 VPWR VGND sg13g2_decap_8
XFILLER_15_774 VPWR VGND sg13g2_decap_8
XFILLER_42_560 VPWR VGND sg13g2_decap_8
XFILLER_30_700 VPWR VGND sg13g2_decap_8
XFILLER_14_284 VPWR VGND sg13g2_decap_8
XFILLER_9_67 VPWR VGND sg13g2_decap_8
XFILLER_30_777 VPWR VGND sg13g2_decap_8
XFILLER_11_991 VPWR VGND sg13g2_decap_8
XFILLER_7_973 VPWR VGND sg13g2_decap_8
XFILLER_6_494 VPWR VGND sg13g2_decap_8
XFILLER_38_833 VPWR VGND sg13g2_decap_8
XFILLER_37_343 VPWR VGND sg13g2_decap_8
XFILLER_33_560 VPWR VGND sg13g2_decap_8
XFILLER_21_711 VPWR VGND sg13g2_decap_8
XFILLER_20_221 VPWR VGND sg13g2_decap_8
XFILLER_21_788 VPWR VGND sg13g2_decap_8
XFILLER_20_298 VPWR VGND sg13g2_decap_8
XFILLER_0_637 VPWR VGND sg13g2_decap_8
XFILLER_29_833 VPWR VGND sg13g2_decap_8
XFILLER_18_32 VPWR VGND sg13g2_decap_8
XFILLER_28_354 VPWR VGND sg13g2_decap_8
XFILLER_44_847 VPWR VGND sg13g2_decap_8
XFILLER_43_357 VPWR VGND sg13g2_decap_8
XFILLER_12_711 VPWR VGND sg13g2_decap_8
XFILLER_34_42 VPWR VGND sg13g2_decap_8
XFILLER_24_571 VPWR VGND sg13g2_decap_8
XFILLER_11_221 VPWR VGND sg13g2_decap_8
XFILLER_15_1019 VPWR VGND sg13g2_decap_8
XFILLER_8_704 VPWR VGND sg13g2_decap_8
XFILLER_12_788 VPWR VGND sg13g2_decap_8
XFILLER_7_203 VPWR VGND sg13g2_decap_8
XFILLER_11_298 VPWR VGND sg13g2_decap_8
XFILLER_4_921 VPWR VGND sg13g2_decap_8
XFILLER_3_431 VPWR VGND sg13g2_decap_8
XFILLER_4_998 VPWR VGND sg13g2_decap_8
XFILLER_47_630 VPWR VGND sg13g2_decap_8
XFILLER_46_140 VPWR VGND sg13g2_decap_8
XFILLER_19_354 VPWR VGND sg13g2_decap_8
XFILLER_35_847 VPWR VGND sg13g2_decap_8
XFILLER_34_357 VPWR VGND sg13g2_decap_8
XFILLER_22_508 VPWR VGND sg13g2_decap_8
XFILLER_15_571 VPWR VGND sg13g2_decap_8
XFILLER_30_574 VPWR VGND sg13g2_decap_8
XFILLER_7_770 VPWR VGND sg13g2_decap_8
XFILLER_6_291 VPWR VGND sg13g2_decap_8
XFILLER_41_0 VPWR VGND sg13g2_decap_8
XFILLER_38_630 VPWR VGND sg13g2_decap_8
XFILLER_37_140 VPWR VGND sg13g2_decap_8
XFILLER_38_1008 VPWR VGND sg13g2_decap_8
XFILLER_26_858 VPWR VGND sg13g2_decap_8
XFILLER_13_508 VPWR VGND sg13g2_decap_8
XFILLER_25_368 VPWR VGND sg13g2_decap_8
XFILLER_21_585 VPWR VGND sg13g2_decap_8
XFILLER_5_718 VPWR VGND sg13g2_decap_8
XFILLER_4_228 VPWR VGND sg13g2_decap_8
XFILLER_20_11 VPWR VGND sg13g2_decap_8
XFILLER_20_88 VPWR VGND sg13g2_decap_8
XFILLER_1_924 VPWR VGND sg13g2_decap_8
XFILLER_0_434 VPWR VGND sg13g2_decap_8
XFILLER_49_917 VPWR VGND sg13g2_decap_8
XFILLER_48_427 VPWR VGND sg13g2_decap_8
XFILLER_29_42 VPWR VGND sg13g2_decap_8
XFILLER_29_630 VPWR VGND sg13g2_decap_8
XFILLER_21_1012 VPWR VGND sg13g2_decap_8
XFILLER_28_151 VPWR VGND sg13g2_decap_8
XFILLER_17_847 VPWR VGND sg13g2_decap_8
XFILLER_45_63 VPWR VGND sg13g2_decap_8
XFILLER_44_644 VPWR VGND sg13g2_decap_8
XFILLER_16_368 VPWR VGND sg13g2_decap_8
XFILLER_43_154 VPWR VGND sg13g2_decap_8
XFILLER_8_501 VPWR VGND sg13g2_decap_8
XFILLER_40_861 VPWR VGND sg13g2_decap_8
XFILLER_12_585 VPWR VGND sg13g2_decap_8
XFILLER_8_578 VPWR VGND sg13g2_decap_8
XFILLER_6_46 VPWR VGND sg13g2_decap_8
XFILLER_4_795 VPWR VGND sg13g2_decap_8
XFILLER_6_1028 VPWR VGND sg13g2_fill_1
XFILLER_13_4 VPWR VGND sg13g2_decap_8
XFILLER_39_427 VPWR VGND sg13g2_decap_8
XFILLER_48_994 VPWR VGND sg13g2_decap_8
XFILLER_19_151 VPWR VGND sg13g2_decap_8
XFILLER_35_644 VPWR VGND sg13g2_decap_8
XFILLER_34_154 VPWR VGND sg13g2_decap_8
XFILLER_22_305 VPWR VGND sg13g2_decap_8
XFILLER_31_861 VPWR VGND sg13g2_decap_8
XFILLER_30_371 VPWR VGND sg13g2_decap_8
XFILLER_44_1001 VPWR VGND sg13g2_decap_8
Xheichips25_template_11 VPWR VGND uo_out[5] sg13g2_tielo
Xheichips25_template_22 VPWR VGND uio_out[0] sg13g2_tielo
XFILLER_39_994 VPWR VGND sg13g2_decap_8
XFILLER_26_655 VPWR VGND sg13g2_decap_8
XFILLER_13_305 VPWR VGND sg13g2_decap_8
XFILLER_15_11 VPWR VGND sg13g2_decap_8
XFILLER_25_165 VPWR VGND sg13g2_decap_8
XFILLER_41_658 VPWR VGND sg13g2_decap_8
XFILLER_15_88 VPWR VGND sg13g2_decap_8
XFILLER_40_168 VPWR VGND sg13g2_decap_8
XFILLER_22_872 VPWR VGND sg13g2_decap_8
XFILLER_21_382 VPWR VGND sg13g2_decap_8
XFILLER_31_21 VPWR VGND sg13g2_decap_8
XFILLER_5_515 VPWR VGND sg13g2_decap_8
XFILLER_31_98 VPWR VGND sg13g2_decap_8
XFILLER_1_721 VPWR VGND sg13g2_decap_8
XFILLER_0_231 VPWR VGND sg13g2_decap_8
XFILLER_49_714 VPWR VGND sg13g2_decap_8
XFILLER_48_224 VPWR VGND sg13g2_decap_8
XFILLER_1_798 VPWR VGND sg13g2_decap_8
XFILLER_45_931 VPWR VGND sg13g2_decap_8
XFILLER_44_441 VPWR VGND sg13g2_decap_8
XFILLER_17_644 VPWR VGND sg13g2_decap_8
XFILLER_16_165 VPWR VGND sg13g2_decap_8
XFILLER_32_658 VPWR VGND sg13g2_decap_8
XFILLER_13_872 VPWR VGND sg13g2_decap_8
XFILLER_31_168 VPWR VGND sg13g2_decap_8
XFILLER_20_809 VPWR VGND sg13g2_decap_8
XFILLER_12_382 VPWR VGND sg13g2_decap_8
XFILLER_9_865 VPWR VGND sg13g2_decap_8
XFILLER_8_375 VPWR VGND sg13g2_decap_8
XFILLER_4_592 VPWR VGND sg13g2_decap_8
XFILLER_39_224 VPWR VGND sg13g2_decap_8
XFILLER_48_791 VPWR VGND sg13g2_decap_8
XFILLER_36_931 VPWR VGND sg13g2_decap_8
XFILLER_35_441 VPWR VGND sg13g2_decap_8
XFILLER_22_102 VPWR VGND sg13g2_decap_8
XFILLER_11_809 VPWR VGND sg13g2_decap_8
XFILLER_23_669 VPWR VGND sg13g2_decap_8
XFILLER_10_319 VPWR VGND sg13g2_decap_8
XFILLER_22_179 VPWR VGND sg13g2_decap_8
XFILLER_2_529 VPWR VGND sg13g2_decap_8
XFILLER_46_728 VPWR VGND sg13g2_decap_8
XFILLER_45_238 VPWR VGND sg13g2_decap_8
XFILLER_39_791 VPWR VGND sg13g2_decap_8
XFILLER_27_931 VPWR VGND sg13g2_decap_8
XFILLER_26_32 VPWR VGND sg13g2_decap_8
XFILLER_26_452 VPWR VGND sg13g2_decap_8
XFILLER_13_102 VPWR VGND sg13g2_decap_8
XFILLER_42_945 VPWR VGND sg13g2_decap_8
XFILLER_14_669 VPWR VGND sg13g2_decap_8
XFILLER_41_455 VPWR VGND sg13g2_decap_8
XFILLER_13_179 VPWR VGND sg13g2_decap_8
XFILLER_42_42 VPWR VGND sg13g2_decap_8
XFILLER_6_802 VPWR VGND sg13g2_decap_8
XFILLER_10_886 VPWR VGND sg13g2_decap_8
XFILLER_5_312 VPWR VGND sg13g2_decap_8
XFILLER_6_879 VPWR VGND sg13g2_decap_8
XFILLER_5_389 VPWR VGND sg13g2_decap_8
XFILLER_3_25 VPWR VGND sg13g2_decap_8
XFILLER_49_511 VPWR VGND sg13g2_decap_8
XFILLER_1_595 VPWR VGND sg13g2_decap_8
XFILLER_49_588 VPWR VGND sg13g2_decap_8
XFILLER_37_728 VPWR VGND sg13g2_decap_8
XFILLER_36_238 VPWR VGND sg13g2_decap_8
XFILLER_18_942 VPWR VGND sg13g2_decap_8
XFILLER_17_441 VPWR VGND sg13g2_decap_8
XFILLER_33_945 VPWR VGND sg13g2_decap_8
XFILLER_32_455 VPWR VGND sg13g2_decap_8
XFILLER_20_606 VPWR VGND sg13g2_decap_8
XFILLER_34_1022 VPWR VGND sg13g2_decap_8
XFILLER_9_662 VPWR VGND sg13g2_decap_8
XFILLER_8_172 VPWR VGND sg13g2_decap_8
XFILLER_41_1015 VPWR VGND sg13g2_decap_8
XFILLER_28_739 VPWR VGND sg13g2_decap_8
XFILLER_27_238 VPWR VGND sg13g2_decap_8
XFILLER_24_956 VPWR VGND sg13g2_decap_8
XFILLER_11_606 VPWR VGND sg13g2_decap_8
XFILLER_23_466 VPWR VGND sg13g2_decap_8
XFILLER_10_116 VPWR VGND sg13g2_decap_8
XFILLER_6_109 VPWR VGND sg13g2_decap_8
XFILLER_12_67 VPWR VGND sg13g2_decap_8
XFILLER_3_816 VPWR VGND sg13g2_decap_8
XFILLER_2_326 VPWR VGND sg13g2_decap_8
XFILLER_46_525 VPWR VGND sg13g2_decap_8
XFILLER_37_42 VPWR VGND sg13g2_decap_8
XFILLER_19_739 VPWR VGND sg13g2_decap_8
XFILLER_18_249 VPWR VGND sg13g2_decap_8
XFILLER_15_956 VPWR VGND sg13g2_decap_8
XFILLER_42_742 VPWR VGND sg13g2_decap_8
XFILLER_18_1028 VPWR VGND sg13g2_fill_1
XFILLER_14_466 VPWR VGND sg13g2_decap_8
XFILLER_41_252 VPWR VGND sg13g2_decap_8
XFILLER_30_959 VPWR VGND sg13g2_decap_8
XFILLER_10_683 VPWR VGND sg13g2_decap_8
XFILLER_6_676 VPWR VGND sg13g2_decap_8
XFILLER_5_186 VPWR VGND sg13g2_decap_8
XFILLER_45_7 VPWR VGND sg13g2_decap_8
XFILLER_2_893 VPWR VGND sg13g2_decap_8
XFILLER_1_392 VPWR VGND sg13g2_decap_8
XFILLER_37_525 VPWR VGND sg13g2_decap_8
XFILLER_49_385 VPWR VGND sg13g2_decap_8
XFILLER_33_742 VPWR VGND sg13g2_decap_8
XFILLER_32_252 VPWR VGND sg13g2_decap_8
XFILLER_20_403 VPWR VGND sg13g2_decap_8
XFILLER_0_819 VPWR VGND sg13g2_decap_8
XFILLER_28_536 VPWR VGND sg13g2_decap_8
XFILLER_43_539 VPWR VGND sg13g2_decap_8
XFILLER_24_753 VPWR VGND sg13g2_decap_8
XFILLER_11_403 VPWR VGND sg13g2_decap_8
XFILLER_23_263 VPWR VGND sg13g2_decap_8
XFILLER_23_11 VPWR VGND sg13g2_decap_8
XFILLER_23_88 VPWR VGND sg13g2_decap_8
XFILLER_20_970 VPWR VGND sg13g2_decap_8
XFILLER_3_613 VPWR VGND sg13g2_decap_8
XFILLER_2_123 VPWR VGND sg13g2_decap_8
XFILLER_47_812 VPWR VGND sg13g2_decap_8
XFILLER_48_63 VPWR VGND sg13g2_decap_8
XFILLER_46_322 VPWR VGND sg13g2_decap_8
XFILLER_19_536 VPWR VGND sg13g2_decap_8
XFILLER_47_889 VPWR VGND sg13g2_decap_8
XFILLER_46_399 VPWR VGND sg13g2_decap_8
XFILLER_34_539 VPWR VGND sg13g2_decap_8
XFILLER_15_753 VPWR VGND sg13g2_decap_8
XFILLER_14_263 VPWR VGND sg13g2_decap_8
XFILLER_9_46 VPWR VGND sg13g2_decap_8
XFILLER_30_756 VPWR VGND sg13g2_decap_8
XFILLER_11_970 VPWR VGND sg13g2_decap_8
XFILLER_10_480 VPWR VGND sg13g2_decap_8
XFILLER_7_952 VPWR VGND sg13g2_decap_8
XFILLER_6_473 VPWR VGND sg13g2_decap_8
XFILLER_9_1026 VPWR VGND sg13g2_fill_2
XFILLER_2_690 VPWR VGND sg13g2_decap_8
XFILLER_38_812 VPWR VGND sg13g2_decap_8
XFILLER_49_182 VPWR VGND sg13g2_decap_8
XFILLER_37_322 VPWR VGND sg13g2_decap_8
XFILLER_38_889 VPWR VGND sg13g2_decap_8
XFILLER_37_399 VPWR VGND sg13g2_decap_8
XFILLER_20_200 VPWR VGND sg13g2_decap_8
XFILLER_21_767 VPWR VGND sg13g2_decap_8
XFILLER_20_277 VPWR VGND sg13g2_decap_8
XFILLER_0_616 VPWR VGND sg13g2_decap_8
XFILLER_48_609 VPWR VGND sg13g2_decap_8
XFILLER_47_119 VPWR VGND sg13g2_decap_8
XFILLER_29_812 VPWR VGND sg13g2_decap_8
XFILLER_28_333 VPWR VGND sg13g2_decap_8
XFILLER_18_11 VPWR VGND sg13g2_decap_8
XFILLER_29_889 VPWR VGND sg13g2_decap_8
XFILLER_44_826 VPWR VGND sg13g2_decap_8
XFILLER_18_88 VPWR VGND sg13g2_decap_8
XFILLER_43_336 VPWR VGND sg13g2_decap_8
XFILLER_34_21 VPWR VGND sg13g2_decap_8
XFILLER_24_550 VPWR VGND sg13g2_decap_8
XFILLER_11_200 VPWR VGND sg13g2_decap_8
XFILLER_34_98 VPWR VGND sg13g2_decap_8
XFILLER_12_767 VPWR VGND sg13g2_decap_8
XFILLER_11_277 VPWR VGND sg13g2_decap_8
XFILLER_4_900 VPWR VGND sg13g2_decap_8
XFILLER_7_259 VPWR VGND sg13g2_decap_8
XFILLER_3_410 VPWR VGND sg13g2_decap_8
XFILLER_4_977 VPWR VGND sg13g2_decap_8
XFILLER_3_487 VPWR VGND sg13g2_decap_8
XFILLER_1_0 VPWR VGND sg13g2_decap_8
XFILLER_39_609 VPWR VGND sg13g2_decap_8
XFILLER_38_119 VPWR VGND sg13g2_decap_8
XFILLER_19_333 VPWR VGND sg13g2_decap_8
XFILLER_47_686 VPWR VGND sg13g2_decap_8
XFILLER_35_826 VPWR VGND sg13g2_decap_8
XFILLER_46_196 VPWR VGND sg13g2_decap_8
XFILLER_34_336 VPWR VGND sg13g2_decap_8
XFILLER_15_550 VPWR VGND sg13g2_decap_8
XFILLER_30_553 VPWR VGND sg13g2_decap_8
XFILLER_6_270 VPWR VGND sg13g2_decap_8
XFILLER_34_0 VPWR VGND sg13g2_decap_8
XFILLER_29_119 VPWR VGND sg13g2_decap_8
XFILLER_38_686 VPWR VGND sg13g2_decap_8
XFILLER_26_837 VPWR VGND sg13g2_decap_8
XFILLER_1_91 VPWR VGND sg13g2_decap_8
XFILLER_37_196 VPWR VGND sg13g2_decap_8
XFILLER_25_347 VPWR VGND sg13g2_decap_8
XFILLER_21_564 VPWR VGND sg13g2_decap_8
XFILLER_4_207 VPWR VGND sg13g2_decap_8
XFILLER_20_67 VPWR VGND sg13g2_decap_8
XFILLER_1_903 VPWR VGND sg13g2_decap_8
XFILLER_0_413 VPWR VGND sg13g2_decap_8
XFILLER_48_406 VPWR VGND sg13g2_decap_8
XFILLER_29_21 VPWR VGND sg13g2_decap_8
XFILLER_29_98 VPWR VGND sg13g2_decap_8
XFILLER_28_130 VPWR VGND sg13g2_decap_8
XFILLER_44_623 VPWR VGND sg13g2_decap_8
XFILLER_29_686 VPWR VGND sg13g2_decap_8
XFILLER_17_826 VPWR VGND sg13g2_decap_8
XFILLER_16_347 VPWR VGND sg13g2_decap_8
XFILLER_45_42 VPWR VGND sg13g2_decap_8
XFILLER_43_133 VPWR VGND sg13g2_decap_8
XFILLER_12_564 VPWR VGND sg13g2_decap_8
XFILLER_40_840 VPWR VGND sg13g2_decap_8
XFILLER_6_25 VPWR VGND sg13g2_decap_8
XFILLER_8_557 VPWR VGND sg13g2_decap_8
XFILLER_4_774 VPWR VGND sg13g2_decap_8
XFILLER_3_284 VPWR VGND sg13g2_decap_8
XFILLER_39_406 VPWR VGND sg13g2_decap_8
XFILLER_0_980 VPWR VGND sg13g2_decap_8
XFILLER_48_973 VPWR VGND sg13g2_decap_8
XFILLER_19_130 VPWR VGND sg13g2_decap_8
XFILLER_47_483 VPWR VGND sg13g2_decap_8
XFILLER_35_623 VPWR VGND sg13g2_decap_8
XFILLER_34_133 VPWR VGND sg13g2_decap_8
XFILLER_31_840 VPWR VGND sg13g2_decap_8
XFILLER_30_350 VPWR VGND sg13g2_decap_8
Xheichips25_template_12 VPWR VGND uo_out[6] sg13g2_tielo
Xheichips25_template_23 VPWR VGND uio_out[1] sg13g2_tielo
XFILLER_39_973 VPWR VGND sg13g2_decap_8
XFILLER_38_483 VPWR VGND sg13g2_decap_8
XFILLER_26_634 VPWR VGND sg13g2_decap_8
XFILLER_25_144 VPWR VGND sg13g2_decap_8
XFILLER_41_637 VPWR VGND sg13g2_decap_8
XFILLER_15_67 VPWR VGND sg13g2_decap_8
XFILLER_40_147 VPWR VGND sg13g2_decap_8
XFILLER_22_851 VPWR VGND sg13g2_decap_8
XFILLER_21_361 VPWR VGND sg13g2_decap_8
XFILLER_31_77 VPWR VGND sg13g2_decap_8
XFILLER_1_700 VPWR VGND sg13g2_decap_8
XFILLER_0_210 VPWR VGND sg13g2_decap_8
XFILLER_1_777 VPWR VGND sg13g2_decap_8
XFILLER_0_287 VPWR VGND sg13g2_decap_8
XFILLER_48_203 VPWR VGND sg13g2_decap_8
XFILLER_45_910 VPWR VGND sg13g2_decap_8
XFILLER_44_420 VPWR VGND sg13g2_decap_8
XFILLER_29_483 VPWR VGND sg13g2_decap_8
XFILLER_17_623 VPWR VGND sg13g2_decap_8
XFILLER_16_144 VPWR VGND sg13g2_decap_8
XFILLER_45_987 VPWR VGND sg13g2_decap_8
XFILLER_44_497 VPWR VGND sg13g2_decap_8
XFILLER_32_637 VPWR VGND sg13g2_decap_8
XFILLER_13_851 VPWR VGND sg13g2_decap_8
XFILLER_31_147 VPWR VGND sg13g2_decap_8
XFILLER_12_361 VPWR VGND sg13g2_decap_8
XFILLER_9_844 VPWR VGND sg13g2_decap_8
XFILLER_8_354 VPWR VGND sg13g2_decap_8
XFILLER_4_571 VPWR VGND sg13g2_decap_8
XFILLER_28_1019 VPWR VGND sg13g2_decap_8
XFILLER_39_203 VPWR VGND sg13g2_decap_8
XFILLER_48_770 VPWR VGND sg13g2_decap_8
XFILLER_36_910 VPWR VGND sg13g2_decap_8
XFILLER_47_280 VPWR VGND sg13g2_decap_8
XFILLER_35_420 VPWR VGND sg13g2_decap_8
XFILLER_36_987 VPWR VGND sg13g2_decap_8
XFILLER_35_497 VPWR VGND sg13g2_decap_8
XFILLER_23_648 VPWR VGND sg13g2_decap_8
XFILLER_22_158 VPWR VGND sg13g2_decap_8
XFILLER_11_1012 VPWR VGND sg13g2_decap_8
XFILLER_2_508 VPWR VGND sg13g2_decap_8
XFILLER_46_707 VPWR VGND sg13g2_decap_8
XFILLER_45_217 VPWR VGND sg13g2_decap_8
XFILLER_39_770 VPWR VGND sg13g2_decap_8
XFILLER_27_910 VPWR VGND sg13g2_decap_8
XFILLER_38_280 VPWR VGND sg13g2_decap_8
XFILLER_26_431 VPWR VGND sg13g2_decap_8
XFILLER_26_11 VPWR VGND sg13g2_decap_8
XFILLER_27_987 VPWR VGND sg13g2_decap_8
XFILLER_14_648 VPWR VGND sg13g2_decap_8
XFILLER_42_924 VPWR VGND sg13g2_decap_8
XFILLER_26_88 VPWR VGND sg13g2_decap_8
XFILLER_13_158 VPWR VGND sg13g2_decap_8
XFILLER_41_434 VPWR VGND sg13g2_decap_8
XFILLER_42_21 VPWR VGND sg13g2_decap_8
XFILLER_10_865 VPWR VGND sg13g2_decap_8
XFILLER_42_98 VPWR VGND sg13g2_decap_8
XFILLER_6_858 VPWR VGND sg13g2_decap_8
XFILLER_5_368 VPWR VGND sg13g2_decap_8
XFILLER_1_574 VPWR VGND sg13g2_decap_8
XFILLER_49_567 VPWR VGND sg13g2_decap_8
XFILLER_37_707 VPWR VGND sg13g2_decap_8
XFILLER_36_217 VPWR VGND sg13g2_decap_8
XFILLER_18_921 VPWR VGND sg13g2_decap_8
XFILLER_17_420 VPWR VGND sg13g2_decap_8
XFILLER_29_280 VPWR VGND sg13g2_decap_8
XFILLER_17_497 VPWR VGND sg13g2_decap_8
XFILLER_45_784 VPWR VGND sg13g2_decap_8
XFILLER_33_924 VPWR VGND sg13g2_decap_8
XFILLER_18_998 VPWR VGND sg13g2_decap_8
XFILLER_44_294 VPWR VGND sg13g2_decap_8
XFILLER_32_434 VPWR VGND sg13g2_decap_8
XFILLER_34_1001 VPWR VGND sg13g2_decap_8
XFILLER_9_641 VPWR VGND sg13g2_decap_8
XFILLER_8_151 VPWR VGND sg13g2_decap_8
XFILLER_28_718 VPWR VGND sg13g2_decap_8
XFILLER_27_217 VPWR VGND sg13g2_decap_8
XFILLER_36_784 VPWR VGND sg13g2_decap_8
XFILLER_24_935 VPWR VGND sg13g2_decap_8
XFILLER_35_294 VPWR VGND sg13g2_decap_8
XFILLER_23_445 VPWR VGND sg13g2_decap_8
XFILLER_12_46 VPWR VGND sg13g2_decap_8
XFILLER_2_305 VPWR VGND sg13g2_decap_8
XFILLER_46_504 VPWR VGND sg13g2_decap_8
XFILLER_37_21 VPWR VGND sg13g2_decap_8
XFILLER_19_718 VPWR VGND sg13g2_decap_8
XFILLER_18_228 VPWR VGND sg13g2_decap_8
XFILLER_37_98 VPWR VGND sg13g2_decap_8
XFILLER_15_935 VPWR VGND sg13g2_decap_8
XFILLER_42_721 VPWR VGND sg13g2_decap_8
XFILLER_27_784 VPWR VGND sg13g2_decap_8
XFILLER_14_445 VPWR VGND sg13g2_decap_8
XFILLER_41_231 VPWR VGND sg13g2_decap_8
XFILLER_42_798 VPWR VGND sg13g2_decap_8
XFILLER_30_938 VPWR VGND sg13g2_decap_8
XFILLER_10_662 VPWR VGND sg13g2_decap_8
XFILLER_6_655 VPWR VGND sg13g2_decap_8
XFILLER_5_165 VPWR VGND sg13g2_decap_8
XFILLER_38_7 VPWR VGND sg13g2_decap_8
XFILLER_2_872 VPWR VGND sg13g2_decap_8
XFILLER_1_371 VPWR VGND sg13g2_decap_8
XFILLER_49_364 VPWR VGND sg13g2_decap_8
XFILLER_37_504 VPWR VGND sg13g2_decap_8
XFILLER_45_581 VPWR VGND sg13g2_decap_8
XFILLER_33_721 VPWR VGND sg13g2_decap_8
XFILLER_18_795 VPWR VGND sg13g2_decap_8
XFILLER_17_294 VPWR VGND sg13g2_decap_8
XFILLER_32_231 VPWR VGND sg13g2_decap_8
XFILLER_33_798 VPWR VGND sg13g2_decap_8
XFILLER_21_949 VPWR VGND sg13g2_decap_8
XFILLER_20_459 VPWR VGND sg13g2_decap_8
XFILLER_28_515 VPWR VGND sg13g2_decap_8
XFILLER_43_518 VPWR VGND sg13g2_decap_8
XFILLER_36_581 VPWR VGND sg13g2_decap_8
XFILLER_24_732 VPWR VGND sg13g2_decap_8
XFILLER_23_242 VPWR VGND sg13g2_decap_8
XFILLER_12_949 VPWR VGND sg13g2_decap_8
XFILLER_11_459 VPWR VGND sg13g2_decap_8
XFILLER_23_67 VPWR VGND sg13g2_decap_8
XFILLER_2_102 VPWR VGND sg13g2_decap_8
XFILLER_3_669 VPWR VGND sg13g2_decap_8
XFILLER_3_4 VPWR VGND sg13g2_decap_8
XFILLER_2_179 VPWR VGND sg13g2_decap_8
XFILLER_48_42 VPWR VGND sg13g2_decap_8
XFILLER_19_515 VPWR VGND sg13g2_decap_8
XFILLER_46_301 VPWR VGND sg13g2_decap_8
XFILLER_0_49 VPWR VGND sg13g2_decap_8
XFILLER_47_868 VPWR VGND sg13g2_decap_8