* NGSPICE file created from heichips25_pudding.ext - technology: ihp-sg13g2

* Black-box entry subcircuit for sg13g2_decap_8 abstract view
.subckt sg13g2_decap_8 VDD VSS
.ends

* Black-box entry subcircuit for sg13g2_fill_1 abstract view
.subckt sg13g2_fill_1 VDD VSS
.ends

* Black-box entry subcircuit for sg13g2_fill_2 abstract view
.subckt sg13g2_fill_2 VDD VSS
.ends

* Black-box entry subcircuit for sg13g2_decap_4 abstract view
.subckt sg13g2_decap_4 VDD VSS
.ends

* Black-box entry subcircuit for sg13g2_dfrbpq_1 abstract view
.subckt sg13g2_dfrbpq_1 RESET_B VSS VDD D Q CLK
.ends

* Black-box entry subcircuit for sg13g2_buf_1 abstract view
.subckt sg13g2_buf_1 A X VDD VSS
.ends

* Black-box entry subcircuit for sg13g2_o21ai_1 abstract view
.subckt sg13g2_o21ai_1 B1 VDD Y VSS A1 A2
.ends

* Black-box entry subcircuit for sg13g2_buf_8 abstract view
.subckt sg13g2_buf_8 A X VDD VSS
.ends

* Black-box entry subcircuit for sg13g2_inv_1 abstract view
.subckt sg13g2_inv_1 VDD Y A VSS
.ends

* Black-box entry subcircuit for sg13g2_a21o_1 abstract view
.subckt sg13g2_a21o_1 A2 A1 B1 X VDD VSS
.ends

* Black-box entry subcircuit for sg13g2_a22oi_1 abstract view
.subckt sg13g2_a22oi_1 Y B1 B2 A2 A1 VDD VSS
.ends

* Black-box entry subcircuit for sg13g2_antennanp abstract view
.subckt sg13g2_antennanp VDD VSS A
.ends

* Black-box entry subcircuit for sg13g2_a21oi_1 abstract view
.subckt sg13g2_a21oi_1 VSS VDD A1 A2 Y B1
.ends

* Black-box entry subcircuit for sg13g2_buf_16 abstract view
.subckt sg13g2_buf_16 X A VDD VSS
.ends

* Black-box entry subcircuit for sg13g2_or2_1 abstract view
.subckt sg13g2_or2_1 VSS VDD X B A
.ends

* Black-box entry subcircuit for sg13g2_nor2b_1 abstract view
.subckt sg13g2_nor2b_1 A B_N Y VDD VSS
.ends

* Black-box entry subcircuit for sg13g2_tiehi abstract view
.subckt sg13g2_tiehi VDD VSS L_HI
.ends

* Black-box entry subcircuit for sg13g2_nand2_1 abstract view
.subckt sg13g2_nand2_1 Y A B VDD VSS
.ends

* Black-box entry subcircuit for sg13g2_nor2_1 abstract view
.subckt sg13g2_nor2_1 A B Y VDD VSS
.ends

* Black-box entry subcircuit for analog_wires abstract view
.subckt analog_wires VcascP[0] VcascP[1] Iout[0] VDDA[0] VDDA[1] VbiasP[1] VbiasP[0]
+ VcascP[2] VcascP[3] Iout[1] VDDA[2] VDDA[3] VbiasP[3] VbiasP[2] i_in i_out
.ends

* Black-box entry subcircuit for dac32module abstract view
.subckt dac32module EN[1] ENB[1] EN[2] ENB[2] ON[16] ONB[16] ON[17] ONB[17] ON[18]
+ ONB[18] ON[19] ONB[19] ON[20] ONB[20] ON[21] ONB[21] ON[22] ONB[22] ON[23] ONB[23]
+ ON[24] ONB[24] ON[25] ONB[25] ON[26] ONB[26] ON[27] ONB[27] ON[28] ONB[28] ON[29]
+ ONB[29] ON[30] ONB[30] ON[31] ONB[31] EN[3] ENB[3] ON[0] ONB[0] ON[1] ONB[1] ON[2]
+ ONB[2] ON[3] ONB[3] ON[4] ONB[4] ON[5] ONB[5] ON[6] EN[0] ENB[0] ONB[6] ON[7] ONB[7]
+ ON[8] ONB[8] ON[9] ONB[9] ON[10] ONB[10] ON[11] ONB[11] ON[12] ONB[12] ON[13] ONB[13]
+ ON[14] ONB[14] ON[15] ONB[15] Iout VbiasP[0] VbiasP[1] VcascP[1] VcascP[0] VDD VSS
.ends

.subckt heichips25_pudding VGND VPWR clk ena i_in i_out rst_n ui_in[0] ui_in[1] ui_in[2]
+ ui_in[3] ui_in[4] ui_in[5] ui_in[6] ui_in[7] uio_in[0] uio_in[1] uio_in[2] uio_in[3]
+ uio_in[4] uio_in[5] uio_in[6] uio_in[7] uio_oe[0] uio_oe[1] uio_oe[2] uio_oe[3]
+ uio_oe[4] uio_oe[5] uio_oe[6] uio_oe[7] uio_out[0] uio_out[1] uio_out[2] uio_out[3]
+ uio_out[4] uio_out[5] uio_out[6] uio_out[7] uo_out[0] uo_out[1] uo_out[2] uo_out[3]
+ uo_out[4] uo_out[5] uo_out[6] uo_out[7]
XFILLER_39_266 VPWR VGND sg13g2_decap_8
XFILLER_22_111 VPWR VGND sg13g2_decap_8
XFILLER_22_188 VPWR VGND sg13g2_decap_8
XFILLER_23_601 VPWR VGND sg13g2_decap_8
XFILLER_35_461 VPWR VGND sg13g2_decap_8
XFILLER_7_7 VPWR VGND sg13g2_decap_8
XFILLER_13_111 VPWR VGND sg13g2_decap_8
XFILLER_14_601 VPWR VGND sg13g2_decap_8
XFILLER_14_612 VPWR VGND sg13g2_fill_1
XFILLER_14_656 VPWR VGND sg13g2_fill_2
XFILLER_26_483 VPWR VGND sg13g2_decap_8
XFILLER_26_63 VPWR VGND sg13g2_decap_8
XFILLER_41_420 VPWR VGND sg13g2_decap_8
XFILLER_45_203 VPWR VGND sg13g2_decap_8
XFILLER_13_188 VPWR VGND sg13g2_decap_8
XFILLER_41_497 VPWR VGND sg13g2_decap_8
XFILLER_42_84 VPWR VGND sg13g2_decap_8
XFILLER_9_137 VPWR VGND sg13g2_decap_8
XFILLER_1_560 VPWR VGND sg13g2_decap_8
XFILLER_5_354 VPWR VGND sg13g2_decap_8
XFILLER_36_225 VPWR VGND sg13g2_decap_8
XFILLER_3_67 VPWR VGND sg13g2_decap_8
XFILLER_49_564 VPWR VGND sg13g2_decap_8
XFILLER_17_472 VPWR VGND sg13g2_decap_8
XFILLER_20_626 VPWR VGND sg13g2_decap_4
XFILLER_32_431 VPWR VGND sg13g2_decap_8
XFILLER_44_280 VPWR VGND sg13g2_decap_8
X_0985_ net110 VGND VPWR _0145_ state\[17\] clknet_5_31__leaf_clk sg13g2_dfrbpq_1
XFILLER_9_693 VPWR VGND sg13g2_fill_1
Xfanout105 net106 net105 VPWR VGND sg13g2_buf_1
Xfanout116 net121 net116 VPWR VGND sg13g2_buf_1
XFILLER_27_258 VPWR VGND sg13g2_decap_8
XFILLER_28_737 VPWR VGND sg13g2_fill_1
XFILLER_42_217 VPWR VGND sg13g2_decap_8
XFILLER_10_158 VPWR VGND sg13g2_decap_8
XFILLER_11_626 VPWR VGND sg13g2_fill_1
XFILLER_12_32 VPWR VGND sg13g2_decap_8
XFILLER_23_475 VPWR VGND sg13g2_decap_8
XFILLER_2_368 VPWR VGND sg13g2_decap_8
XFILLER_5_4 VPWR VGND sg13g2_decap_8
XFILLER_37_40 VPWR VGND sg13g2_decap_8
XFILLER_46_567 VPWR VGND sg13g2_decap_8
XFILLER_14_475 VPWR VGND sg13g2_decap_8
XFILLER_18_269 VPWR VGND sg13g2_decap_8
XFILLER_26_280 VPWR VGND sg13g2_decap_8
XFILLER_41_294 VPWR VGND sg13g2_decap_8
X_0770_ _0409_ VPWR _0178_ VGND net98 _0009_ sg13g2_o21ai_1
XFILLER_5_151 VPWR VGND sg13g2_decap_8
XFILLER_37_545 VPWR VGND sg13g2_decap_8
XFILLER_49_361 VPWR VGND sg13g2_decap_8
XFILLER_20_412 VPWR VGND sg13g2_decap_8
X_0968_ net101 VGND VPWR _0128_ state\[0\] clknet_5_22__leaf_clk sg13g2_dfrbpq_1
Xclkbuf_4_12_0_clk clknet_0_clk clknet_4_12_0_clk VPWR VGND sg13g2_buf_8
XFILLER_0_817 VPWR VGND sg13g2_decap_4
X_0899_ VPWR _0249_ daisychain\[56\] VGND sg13g2_inv_1
XFILLER_28_523 VPWR VGND sg13g2_decap_8
XFILLER_15_217 VPWR VGND sg13g2_decap_8
XFILLER_23_272 VPWR VGND sg13g2_decap_8
XFILLER_24_762 VPWR VGND sg13g2_fill_1
XFILLER_43_504 VPWR VGND sg13g2_decap_8
XFILLER_11_445 VPWR VGND sg13g2_decap_8
XFILLER_23_97 VPWR VGND sg13g2_decap_8
XFILLER_7_427 VPWR VGND sg13g2_decap_8
XFILLER_2_165 VPWR VGND sg13g2_decap_8
XFILLER_3_655 VPWR VGND sg13g2_decap_8
XFILLER_0_35 VPWR VGND sg13g2_decap_8
XFILLER_19_512 VPWR VGND sg13g2_decap_8
XFILLER_34_504 VPWR VGND sg13g2_decap_8
XFILLER_46_364 VPWR VGND sg13g2_decap_8
XFILLER_14_272 VPWR VGND sg13g2_decap_8
XFILLER_30_732 VPWR VGND sg13g2_decap_8
XFILLER_30_798 VPWR VGND sg13g2_decap_8
XFILLER_42_581 VPWR VGND sg13g2_decap_8
X_0822_ VPWR _0041_ state\[18\] VGND sg13g2_inv_1
XFILLER_9_88 VPWR VGND sg13g2_decap_8
XFILLER_9_11 VPWR VGND sg13g2_decap_8
X_0753_ _0358_ VPWR _0161_ VGND net94 _0011_ sg13g2_o21ai_1
X_0684_ _0248_ net70 _0423_ _0424_ VPWR VGND sg13g2_a21o_1
XFILLER_37_320 VPWR VGND sg13g2_decap_8
XFILLER_25_515 VPWR VGND sg13g2_decap_8
XFILLER_40_518 VPWR VGND sg13g2_decap_8
XFILLER_20_286 VPWR VGND sg13g2_decap_8
XFILLER_0_658 VPWR VGND sg13g2_decap_8
XFILLER_16_504 VPWR VGND sg13g2_decap_8
XFILLER_18_20 VPWR VGND sg13g2_fill_2
XFILLER_18_31 VPWR VGND sg13g2_decap_8
XFILLER_28_320 VPWR VGND sg13g2_decap_8
XFILLER_28_397 VPWR VGND sg13g2_decap_8
XFILLER_29_821 VPWR VGND sg13g2_fill_2
XFILLER_43_301 VPWR VGND sg13g2_decap_8
XFILLER_11_242 VPWR VGND sg13g2_decap_8
XFILLER_12_743 VPWR VGND sg13g2_fill_1
XFILLER_31_529 VPWR VGND sg13g2_decap_8
XFILLER_34_63 VPWR VGND sg13g2_decap_8
XFILLER_43_378 VPWR VGND sg13g2_decap_8
XFILLER_3_452 VPWR VGND sg13g2_decap_8
XFILLER_7_224 VPWR VGND sg13g2_decap_8
XFILLER_15_581 VPWR VGND sg13g2_decap_8
XFILLER_19_386 VPWR VGND sg13g2_decap_8
XFILLER_34_301 VPWR VGND sg13g2_decap_8
XFILLER_34_378 VPWR VGND sg13g2_decap_8
XFILLER_46_161 VPWR VGND sg13g2_decap_8
XFILLER_47_651 VPWR VGND sg13g2_decap_8
X_1021_ net119 VGND VPWR _0181_ state\[53\] clknet_5_15__leaf_clk sg13g2_dfrbpq_1
X_0805_ VPWR _0202_ daisychain\[9\] VGND sg13g2_inv_1
X_0736_ _0307_ VPWR _0144_ VGND net90 _0039_ sg13g2_o21ai_1
X_0667_ net97 VPWR _0411_ VGND net75 state\[51\] sg13g2_o21ai_1
X_0598_ _0097_ _0358_ _0359_ net49 _0226_ VPWR VGND sg13g2_a22oi_1
XFILLER_25_312 VPWR VGND sg13g2_decap_8
XFILLER_26_802 VPWR VGND sg13g2_fill_2
XFILLER_29_117 VPWR VGND sg13g2_decap_8
XFILLER_21_562 VPWR VGND sg13g2_decap_8
XFILLER_25_389 VPWR VGND sg13g2_decap_8
XFILLER_37_194 VPWR VGND sg13g2_decap_8
XFILLER_40_315 VPWR VGND sg13g2_decap_8
XFILLER_20_76 VPWR VGND sg13g2_decap_8
XFILLER_4_249 VPWR VGND sg13g2_decap_8
XFILLER_0_455 VPWR VGND sg13g2_decap_8
XFILLER_29_96 VPWR VGND sg13g2_decap_8
XFILLER_48_448 VPWR VGND sg13g2_decap_8
XFILLER_16_301 VPWR VGND sg13g2_decap_8
XFILLER_16_378 VPWR VGND sg13g2_decap_8
XFILLER_28_194 VPWR VGND sg13g2_decap_8
XFILLER_29_673 VPWR VGND sg13g2_decap_4
XFILLER_31_326 VPWR VGND sg13g2_decap_8
XFILLER_43_175 VPWR VGND sg13g2_decap_8
XFILLER_44_665 VPWR VGND sg13g2_decap_4
XFILLER_45_84 VPWR VGND sg13g2_decap_8
XFILLER_8_588 VPWR VGND sg13g2_decap_4
XFILLER_8_511 VPWR VGND sg13g2_decap_8
XANTENNA_5 VPWR VGND digitalen.g\[0\].u.OUTP sg13g2_antennanp
X_0521_ VGND VPWR net25 daisychain\[13\] _0302_ net41 sg13g2_a21oi_1
X_0452_ VPWR _0019_ state\[59\] VGND sg13g2_inv_1
XFILLER_6_67 VPWR VGND sg13g2_decap_8
XFILLER_19_183 VPWR VGND sg13g2_decap_8
XFILLER_39_448 VPWR VGND sg13g2_decap_8
XFILLER_34_175 VPWR VGND sg13g2_decap_8
X_1004_ net114 VGND VPWR _0164_ state\[36\] clknet_5_1__leaf_clk sg13g2_dfrbpq_1
X_0719_ _0127_ _0449_ _0450_ net33 _0256_ VPWR VGND sg13g2_a22oi_1
XFILLER_26_665 VPWR VGND sg13g2_decap_4
XFILLER_26_676 VPWR VGND sg13g2_fill_1
XFILLER_41_602 VPWR VGND sg13g2_decap_8
XFILLER_15_98 VPWR VGND sg13g2_decap_8
XFILLER_21_381 VPWR VGND sg13g2_decap_8
XFILLER_25_186 VPWR VGND sg13g2_decap_8
XFILLER_31_53 VPWR VGND sg13g2_decap_8
XFILLER_40_112 VPWR VGND sg13g2_decap_8
XFILLER_40_189 VPWR VGND sg13g2_decap_8
XFILLER_9_319 VPWR VGND sg13g2_decap_8
Xoutput7 net7 uio_out[0] VPWR VGND sg13g2_buf_1
Xoutput20 net20 uo_out[5] VPWR VGND sg13g2_buf_1
XFILLER_5_536 VPWR VGND sg13g2_decap_8
XFILLER_0_252 VPWR VGND sg13g2_decap_8
XFILLER_29_481 VPWR VGND sg13g2_decap_8
XFILLER_48_245 VPWR VGND sg13g2_decap_8
XFILLER_49_746 VPWR VGND sg13g2_decap_8
XFILLER_16_175 VPWR VGND sg13g2_decap_8
XFILLER_17_676 VPWR VGND sg13g2_decap_8
XFILLER_20_819 VPWR VGND sg13g2_decap_4
XFILLER_31_123 VPWR VGND sg13g2_decap_8
XFILLER_44_462 VPWR VGND sg13g2_decap_8
Xclkbuf_5_17__f_clk clknet_5_17__leaf_clk clknet_4_8_0_clk VPWR VGND sg13g2_buf_16
XFILLER_8_385 VPWR VGND sg13g2_decap_8
X_0504_ _0203_ net64 _0288_ _0289_ VPWR VGND sg13g2_a21o_1
XFILLER_35_440 VPWR VGND sg13g2_decap_8
XFILLER_39_245 VPWR VGND sg13g2_decap_8
XFILLER_22_167 VPWR VGND sg13g2_decap_8
XFILLER_23_679 VPWR VGND sg13g2_fill_1
XFILLER_13_167 VPWR VGND sg13g2_decap_8
XFILLER_26_42 VPWR VGND sg13g2_decap_8
XFILLER_26_462 VPWR VGND sg13g2_decap_8
XFILLER_41_476 VPWR VGND sg13g2_decap_8
XFILLER_45_259 VPWR VGND sg13g2_decap_8
XFILLER_9_116 VPWR VGND sg13g2_decap_8
XFILLER_42_63 VPWR VGND sg13g2_decap_8
XFILLER_6_812 VPWR VGND sg13g2_decap_8
XFILLER_5_333 VPWR VGND sg13g2_decap_8
XFILLER_3_46 VPWR VGND sg13g2_decap_8
XFILLER_17_451 VPWR VGND sg13g2_decap_8
XFILLER_36_204 VPWR VGND sg13g2_decap_8
XFILLER_49_543 VPWR VGND sg13g2_decap_8
XFILLER_20_605 VPWR VGND sg13g2_fill_1
XFILLER_32_410 VPWR VGND sg13g2_decap_8
XFILLER_32_487 VPWR VGND sg13g2_decap_8
X_0984_ net110 VGND VPWR _0144_ state\[16\] clknet_5_31__leaf_clk sg13g2_dfrbpq_1
XFILLER_8_182 VPWR VGND sg13g2_decap_8
Xfanout106 net112 net106 VPWR VGND sg13g2_buf_1
Xfanout117 net120 net117 VPWR VGND sg13g2_buf_1
XFILLER_23_454 VPWR VGND sg13g2_decap_8
XFILLER_27_237 VPWR VGND sg13g2_decap_8
XFILLER_10_137 VPWR VGND sg13g2_decap_8
XFILLER_12_11 VPWR VGND sg13g2_decap_8
XFILLER_12_88 VPWR VGND sg13g2_decap_8
XFILLER_7_609 VPWR VGND sg13g2_decap_8
XFILLER_2_347 VPWR VGND sg13g2_decap_8
XFILLER_18_248 VPWR VGND sg13g2_decap_8
XFILLER_37_96 VPWR VGND sg13g2_decap_8
XFILLER_46_546 VPWR VGND sg13g2_decap_8
XFILLER_14_454 VPWR VGND sg13g2_decap_8
XFILLER_41_273 VPWR VGND sg13g2_decap_8
XFILLER_6_620 VPWR VGND sg13g2_fill_2
XFILLER_5_130 VPWR VGND sg13g2_decap_8
XFILLER_37_524 VPWR VGND sg13g2_decap_8
XFILLER_49_340 VPWR VGND sg13g2_decap_8
XFILLER_18_782 VPWR VGND sg13g2_decap_4
XFILLER_33_741 VPWR VGND sg13g2_fill_2
XFILLER_20_468 VPWR VGND sg13g2_decap_8
XFILLER_32_284 VPWR VGND sg13g2_decap_8
X_0967_ net123 VGND VPWR _0127_ daisychain\[63\] clknet_5_26__leaf_clk sg13g2_dfrbpq_1
XFILLER_9_480 VPWR VGND sg13g2_decap_8
X_0898_ VPWR _0016_ state\[56\] VGND sg13g2_inv_1
XFILLER_28_502 VPWR VGND sg13g2_decap_8
XFILLER_28_579 VPWR VGND sg13g2_decap_8
XFILLER_11_424 VPWR VGND sg13g2_decap_8
XFILLER_23_251 VPWR VGND sg13g2_decap_8
XFILLER_7_406 VPWR VGND sg13g2_decap_8
XFILLER_23_76 VPWR VGND sg13g2_decap_8
XFILLER_3_634 VPWR VGND sg13g2_decap_8
XFILLER_2_144 VPWR VGND sg13g2_decap_8
XFILLER_48_84 VPWR VGND sg13g2_decap_8
XFILLER_0_14 VPWR VGND sg13g2_decap_8
XFILLER_46_343 VPWR VGND sg13g2_decap_8
XFILLER_14_251 VPWR VGND sg13g2_decap_8
XFILLER_42_560 VPWR VGND sg13g2_decap_8
X_0821_ VPWR _0210_ daisychain\[17\] VGND sg13g2_inv_1
X_0752_ _0355_ VPWR _0160_ VGND net94 _0000_ sg13g2_o21ai_1
XFILLER_9_67 VPWR VGND sg13g2_decap_8
X_0683_ net92 VPWR _0423_ VGND net70 state\[55\] sg13g2_o21ai_1
XFILLER_6_494 VPWR VGND sg13g2_decap_8
XFILLER_20_265 VPWR VGND sg13g2_decap_8
XFILLER_0_637 VPWR VGND sg13g2_decap_8
XFILLER_18_87 VPWR VGND sg13g2_decap_8
XFILLER_28_376 VPWR VGND sg13g2_decap_8
XFILLER_31_508 VPWR VGND sg13g2_decap_8
XFILLER_43_357 VPWR VGND sg13g2_decap_8
XFILLER_11_221 VPWR VGND sg13g2_decap_8
XFILLER_11_298 VPWR VGND sg13g2_decap_8
XFILLER_34_42 VPWR VGND sg13g2_decap_8
XFILLER_8_737 VPWR VGND sg13g2_fill_2
XFILLER_7_203 VPWR VGND sg13g2_decap_8
XFILLER_3_431 VPWR VGND sg13g2_decap_8
XFILLER_19_365 VPWR VGND sg13g2_decap_8
XFILLER_46_140 VPWR VGND sg13g2_decap_8
XFILLER_47_630 VPWR VGND sg13g2_decap_8
X_1020_ net119 VGND VPWR _0180_ state\[52\] clknet_5_12__leaf_clk sg13g2_dfrbpq_1
Xclkbuf_4_11_0_clk clknet_0_clk clknet_4_11_0_clk VPWR VGND sg13g2_buf_8
XFILLER_15_560 VPWR VGND sg13g2_decap_8
XFILLER_34_357 VPWR VGND sg13g2_decap_8
X_0804_ VPWR _0063_ state\[9\] VGND sg13g2_inv_1
X_0735_ _0304_ VPWR _0143_ VGND net91 _0038_ sg13g2_o21ai_1
XFILLER_41_0 VPWR VGND sg13g2_decap_8
X_0666_ _0114_ _0409_ _0410_ net53 _0243_ VPWR VGND sg13g2_a22oi_1
X_0597_ VGND VPWR net28 daisychain\[32\] _0359_ net49 sg13g2_a21oi_1
XFILLER_6_291 VPWR VGND sg13g2_decap_8
XFILLER_37_173 VPWR VGND sg13g2_decap_8
XFILLER_38_663 VPWR VGND sg13g2_fill_2
XFILLER_25_368 VPWR VGND sg13g2_decap_8
XFILLER_20_55 VPWR VGND sg13g2_decap_8
XFILLER_5_707 VPWR VGND sg13g2_fill_1
XFILLER_4_228 VPWR VGND sg13g2_decap_8
XFILLER_0_434 VPWR VGND sg13g2_decap_8
XFILLER_29_75 VPWR VGND sg13g2_decap_8
XFILLER_48_427 VPWR VGND sg13g2_decap_8
XFILLER_16_357 VPWR VGND sg13g2_decap_8
XFILLER_28_173 VPWR VGND sg13g2_decap_8
XFILLER_31_305 VPWR VGND sg13g2_decap_8
XFILLER_43_154 VPWR VGND sg13g2_decap_8
XFILLER_44_644 VPWR VGND sg13g2_decap_8
XFILLER_45_63 VPWR VGND sg13g2_decap_8
XANTENNA_6 VPWR VGND digitalen.g\[0\].u.OUTP sg13g2_antennanp
XFILLER_8_567 VPWR VGND sg13g2_decap_8
XFILLER_6_46 VPWR VGND sg13g2_decap_8
X_0520_ _0207_ net65 _0300_ _0301_ VPWR VGND sg13g2_a21o_1
XFILLER_13_4 VPWR VGND sg13g2_decap_4
XFILLER_19_162 VPWR VGND sg13g2_decap_8
XFILLER_35_666 VPWR VGND sg13g2_fill_1
XFILLER_39_427 VPWR VGND sg13g2_decap_8
X_1003_ net101 VGND VPWR _0163_ state\[35\] clknet_5_9__leaf_clk sg13g2_dfrbpq_1
XFILLER_22_349 VPWR VGND sg13g2_decap_8
XFILLER_30_382 VPWR VGND sg13g2_decap_8
XFILLER_34_154 VPWR VGND sg13g2_decap_8
X_0718_ VGND VPWR net32 daisychain\[62\] _0450_ net33 sg13g2_a21oi_1
X_0649_ VGND VPWR net29 daisychain\[45\] _0398_ net51 sg13g2_a21oi_1
XFILLER_13_349 VPWR VGND sg13g2_decap_8
XFILLER_25_165 VPWR VGND sg13g2_decap_8
XFILLER_26_644 VPWR VGND sg13g2_decap_8
XFILLER_15_77 VPWR VGND sg13g2_decap_8
XFILLER_21_360 VPWR VGND sg13g2_decap_8
XFILLER_31_32 VPWR VGND sg13g2_decap_8
XFILLER_40_168 VPWR VGND sg13g2_decap_8
XFILLER_5_515 VPWR VGND sg13g2_decap_8
XFILLER_0_231 VPWR VGND sg13g2_decap_8
Xoutput8 net8 uio_out[1] VPWR VGND sg13g2_buf_1
Xoutput21 net21 uo_out[6] VPWR VGND sg13g2_buf_1
Xoutput10 net10 uio_out[3] VPWR VGND sg13g2_buf_1
XFILLER_49_725 VPWR VGND sg13g2_decap_8
XFILLER_29_460 VPWR VGND sg13g2_decap_8
XFILLER_44_441 VPWR VGND sg13g2_decap_8
XFILLER_48_224 VPWR VGND sg13g2_decap_8
XFILLER_12_382 VPWR VGND sg13g2_decap_8
XFILLER_16_154 VPWR VGND sg13g2_decap_8
XFILLER_31_102 VPWR VGND sg13g2_decap_8
XFILLER_31_179 VPWR VGND sg13g2_decap_8
XFILLER_8_364 VPWR VGND sg13g2_decap_8
XFILLER_39_224 VPWR VGND sg13g2_decap_8
X_0503_ net87 VPWR _0288_ VGND net64 state\[10\] sg13g2_o21ai_1
XFILLER_4_592 VPWR VGND sg13g2_decap_8
XFILLER_23_636 VPWR VGND sg13g2_decap_8
XFILLER_27_419 VPWR VGND sg13g2_decap_8
XFILLER_35_496 VPWR VGND sg13g2_decap_8
XFILLER_48_791 VPWR VGND sg13g2_decap_8
XFILLER_10_319 VPWR VGND sg13g2_decap_8
XFILLER_22_146 VPWR VGND sg13g2_decap_8
XFILLER_31_691 VPWR VGND sg13g2_decap_8
XFILLER_2_529 VPWR VGND sg13g2_decap_8
XFILLER_45_238 VPWR VGND sg13g2_decap_8
XFILLER_46_717 VPWR VGND sg13g2_decap_8
Xclkbuf_5_23__f_clk clknet_5_23__leaf_clk clknet_4_11_0_clk VPWR VGND sg13g2_buf_16
XFILLER_13_146 VPWR VGND sg13g2_decap_8
XFILLER_14_658 VPWR VGND sg13g2_fill_1
XFILLER_26_441 VPWR VGND sg13g2_decap_8
XFILLER_26_98 VPWR VGND sg13g2_decap_8
XFILLER_41_455 VPWR VGND sg13g2_decap_8
XFILLER_42_42 VPWR VGND sg13g2_decap_8
XFILLER_6_802 VPWR VGND sg13g2_decap_8
XFILLER_5_389 VPWR VGND sg13g2_decap_8
XFILLER_5_312 VPWR VGND sg13g2_decap_8
XFILLER_1_595 VPWR VGND sg13g2_decap_8
XFILLER_3_25 VPWR VGND sg13g2_decap_8
XFILLER_49_522 VPWR VGND sg13g2_decap_8
XFILLER_17_430 VPWR VGND sg13g2_decap_8
XFILLER_49_599 VPWR VGND sg13g2_decap_8
XFILLER_32_466 VPWR VGND sg13g2_decap_8
X_0983_ net111 VGND VPWR _0143_ state\[15\] clknet_5_21__leaf_clk sg13g2_dfrbpq_1
XFILLER_8_161 VPWR VGND sg13g2_decap_8
Xfanout107 net108 net107 VPWR VGND sg13g2_buf_1
Xfanout118 net120 net118 VPWR VGND sg13g2_buf_1
XFILLER_27_216 VPWR VGND sg13g2_decap_8
XFILLER_10_116 VPWR VGND sg13g2_decap_8
XFILLER_11_606 VPWR VGND sg13g2_fill_2
XFILLER_11_639 VPWR VGND sg13g2_fill_2
XFILLER_23_433 VPWR VGND sg13g2_decap_8
XFILLER_35_293 VPWR VGND sg13g2_decap_8
XFILLER_12_67 VPWR VGND sg13g2_decap_8
XFILLER_6_109 VPWR VGND sg13g2_decap_8
XFILLER_2_326 VPWR VGND sg13g2_decap_8
XFILLER_18_227 VPWR VGND sg13g2_decap_8
XFILLER_33_219 VPWR VGND sg13g2_decap_8
XFILLER_37_75 VPWR VGND sg13g2_decap_8
XFILLER_46_525 VPWR VGND sg13g2_decap_8
XFILLER_14_433 VPWR VGND sg13g2_decap_8
XFILLER_41_252 VPWR VGND sg13g2_decap_8
XFILLER_45_7 VPWR VGND sg13g2_decap_8
XFILLER_6_687 VPWR VGND sg13g2_decap_8
XFILLER_5_186 VPWR VGND sg13g2_decap_8
XFILLER_1_392 VPWR VGND sg13g2_decap_8
XFILLER_37_503 VPWR VGND sg13g2_decap_8
XFILLER_49_396 VPWR VGND sg13g2_decap_8
XFILLER_24_219 VPWR VGND sg13g2_decap_8
XFILLER_32_263 VPWR VGND sg13g2_decap_8
XFILLER_20_447 VPWR VGND sg13g2_decap_8
X_0897_ VPWR _0248_ daisychain\[55\] VGND sg13g2_inv_1
X_0966_ net123 VGND VPWR _0126_ daisychain\[62\] clknet_5_24__leaf_clk sg13g2_dfrbpq_1
XFILLER_28_558 VPWR VGND sg13g2_decap_8
XFILLER_43_539 VPWR VGND sg13g2_decap_8
XFILLER_11_403 VPWR VGND sg13g2_decap_8
XFILLER_23_230 VPWR VGND sg13g2_decap_8
XFILLER_23_55 VPWR VGND sg13g2_decap_8
XFILLER_36_591 VPWR VGND sg13g2_decap_8
XFILLER_2_123 VPWR VGND sg13g2_decap_8
XFILLER_3_613 VPWR VGND sg13g2_decap_8
XFILLER_46_322 VPWR VGND sg13g2_decap_8
XFILLER_47_812 VPWR VGND sg13g2_decap_8
XFILLER_48_63 VPWR VGND sg13g2_decap_8
XFILLER_14_230 VPWR VGND sg13g2_decap_8
XFILLER_19_558 VPWR VGND sg13g2_fill_2
XFILLER_27_580 VPWR VGND sg13g2_decap_8
XFILLER_30_723 VPWR VGND sg13g2_fill_1
XFILLER_34_539 VPWR VGND sg13g2_decap_8
XFILLER_46_399 VPWR VGND sg13g2_decap_8
XFILLER_10_480 VPWR VGND sg13g2_decap_8
XFILLER_30_789 VPWR VGND sg13g2_decap_4
X_0820_ VPWR _0040_ state\[17\] VGND sg13g2_inv_1
X_0751_ _0352_ VPWR _0159_ VGND net85 _0056_ sg13g2_o21ai_1
XFILLER_9_46 VPWR VGND sg13g2_decap_8
XFILLER_2_690 VPWR VGND sg13g2_decap_8
X_0682_ _0118_ _0421_ _0422_ net48 _0247_ VPWR VGND sg13g2_a22oi_1
XFILLER_6_473 VPWR VGND sg13g2_decap_8
XFILLER_37_355 VPWR VGND sg13g2_decap_8
XFILLER_37_366 VPWR VGND sg13g2_fill_2
XFILLER_49_193 VPWR VGND sg13g2_decap_8
XFILLER_20_244 VPWR VGND sg13g2_decap_8
XFILLER_33_583 VPWR VGND sg13g2_decap_8
X_0949_ net118 VGND VPWR _0109_ daisychain\[45\] clknet_5_5__leaf_clk sg13g2_dfrbpq_1
XFILLER_0_616 VPWR VGND sg13g2_decap_8
XFILLER_47_119 VPWR VGND sg13g2_decap_8
XFILLER_48_609 VPWR VGND sg13g2_decap_8
XFILLER_16_539 VPWR VGND sg13g2_decap_8
XFILLER_18_66 VPWR VGND sg13g2_decap_8
XFILLER_28_355 VPWR VGND sg13g2_decap_8
XFILLER_34_21 VPWR VGND sg13g2_decap_8
XFILLER_43_336 VPWR VGND sg13g2_decap_8
XFILLER_11_200 VPWR VGND sg13g2_decap_8
XFILLER_11_277 VPWR VGND sg13g2_decap_8
XFILLER_24_594 VPWR VGND sg13g2_decap_8
XFILLER_34_98 VPWR VGND sg13g2_decap_8
XFILLER_7_259 VPWR VGND sg13g2_decap_8
XFILLER_1_0 VPWR VGND sg13g2_decap_8
XFILLER_3_410 VPWR VGND sg13g2_decap_8
XFILLER_3_487 VPWR VGND sg13g2_decap_8
XFILLER_15_8 VPWR VGND sg13g2_fill_1
XFILLER_19_344 VPWR VGND sg13g2_decap_8
XFILLER_38_119 VPWR VGND sg13g2_decap_8
XFILLER_47_686 VPWR VGND sg13g2_decap_8
XFILLER_34_336 VPWR VGND sg13g2_decap_8
XFILLER_46_196 VPWR VGND sg13g2_decap_8
X_0803_ VPWR _0201_ daisychain\[8\] VGND sg13g2_inv_1
X_0734_ _0301_ VPWR _0142_ VGND net91 _0037_ sg13g2_o21ai_1
X_0665_ VGND VPWR net30 daisychain\[49\] _0410_ net53 sg13g2_a21oi_1
XFILLER_7_771 VPWR VGND sg13g2_decap_8
XFILLER_6_270 VPWR VGND sg13g2_decap_8
XFILLER_34_0 VPWR VGND sg13g2_decap_8
XFILLER_38_620 VPWR VGND sg13g2_fill_1
X_0596_ _0226_ net72 _0357_ _0358_ VPWR VGND sg13g2_a21o_1
XFILLER_1_91 VPWR VGND sg13g2_decap_8
XFILLER_25_347 VPWR VGND sg13g2_decap_8
XFILLER_26_804 VPWR VGND sg13g2_fill_1
XFILLER_26_815 VPWR VGND sg13g2_decap_8
XFILLER_37_152 VPWR VGND sg13g2_decap_8
Xclkbuf_5_4__f_clk clknet_5_4__leaf_clk clknet_4_2_0_clk VPWR VGND sg13g2_buf_16
XFILLER_21_542 VPWR VGND sg13g2_fill_1
XFILLER_21_597 VPWR VGND sg13g2_decap_8
XFILLER_33_380 VPWR VGND sg13g2_decap_8
XFILLER_0_413 VPWR VGND sg13g2_decap_8
XFILLER_20_34 VPWR VGND sg13g2_decap_8
XFILLER_4_207 VPWR VGND sg13g2_decap_8
XFILLER_28_152 VPWR VGND sg13g2_decap_8
XFILLER_29_54 VPWR VGND sg13g2_decap_8
XFILLER_44_623 VPWR VGND sg13g2_decap_8
XFILLER_48_406 VPWR VGND sg13g2_decap_8
XFILLER_12_564 VPWR VGND sg13g2_decap_4
XFILLER_16_336 VPWR VGND sg13g2_decap_8
XFILLER_24_380 VPWR VGND sg13g2_decap_8
XFILLER_43_133 VPWR VGND sg13g2_decap_8
XFILLER_45_42 VPWR VGND sg13g2_decap_8
XFILLER_8_546 VPWR VGND sg13g2_decap_8
XFILLER_6_25 VPWR VGND sg13g2_decap_8
XFILLER_39_406 VPWR VGND sg13g2_decap_8
XFILLER_3_284 VPWR VGND sg13g2_decap_8
XFILLER_19_141 VPWR VGND sg13g2_decap_8
XFILLER_23_818 VPWR VGND sg13g2_decap_4
XFILLER_34_133 VPWR VGND sg13g2_decap_8
XFILLER_35_601 VPWR VGND sg13g2_fill_1
XFILLER_35_645 VPWR VGND sg13g2_fill_2
XFILLER_47_483 VPWR VGND sg13g2_decap_8
X_1002_ net113 VGND VPWR _0162_ state\[34\] clknet_5_2__leaf_clk sg13g2_dfrbpq_1
XFILLER_22_328 VPWR VGND sg13g2_decap_8
XFILLER_30_361 VPWR VGND sg13g2_decap_8
X_0717_ _0256_ net56 _0448_ _0449_ VPWR VGND sg13g2_a21o_1
X_0648_ _0239_ net74 _0396_ _0397_ VPWR VGND sg13g2_a21o_1
XFILLER_26_623 VPWR VGND sg13g2_decap_8
XFILLER_38_472 VPWR VGND sg13g2_decap_8
XFILLER_38_483 VPWR VGND sg13g2_fill_1
X_0579_ net84 VPWR _0345_ VGND net61 state\[29\] sg13g2_o21ai_1
XFILLER_13_328 VPWR VGND sg13g2_decap_8
XFILLER_15_56 VPWR VGND sg13g2_decap_8
XFILLER_25_144 VPWR VGND sg13g2_decap_8
XFILLER_40_147 VPWR VGND sg13g2_decap_8
XFILLER_41_626 VPWR VGND sg13g2_decap_8
XFILLER_41_648 VPWR VGND sg13g2_fill_2
XFILLER_31_11 VPWR VGND sg13g2_decap_8
XFILLER_31_88 VPWR VGND sg13g2_decap_8
Xclkbuf_4_10_0_clk clknet_0_clk clknet_4_10_0_clk VPWR VGND sg13g2_buf_8
XFILLER_0_210 VPWR VGND sg13g2_decap_8
XFILLER_0_287 VPWR VGND sg13g2_decap_8
XFILLER_1_700 VPWR VGND sg13g2_decap_4
XFILLER_48_203 VPWR VGND sg13g2_decap_8
Xoutput9 net9 uio_out[2] VPWR VGND sg13g2_buf_1
Xoutput22 net22 uo_out[7] VPWR VGND sg13g2_buf_1
Xoutput11 net11 uio_out[4] VPWR VGND sg13g2_buf_1
XFILLER_49_704 VPWR VGND sg13g2_decap_8
XFILLER_16_133 VPWR VGND sg13g2_decap_8
XFILLER_17_645 VPWR VGND sg13g2_fill_1
XFILLER_17_656 VPWR VGND sg13g2_fill_2
XFILLER_36_409 VPWR VGND sg13g2_decap_8
XFILLER_44_420 VPWR VGND sg13g2_decap_8
XFILLER_12_361 VPWR VGND sg13g2_decap_8
XFILLER_31_158 VPWR VGND sg13g2_decap_8
XFILLER_44_497 VPWR VGND sg13g2_decap_8
XFILLER_8_343 VPWR VGND sg13g2_decap_8
X_0502_ _0073_ _0286_ _0287_ net40 _0202_ VPWR VGND sg13g2_a22oi_1
XFILLER_4_571 VPWR VGND sg13g2_decap_8
XFILLER_39_203 VPWR VGND sg13g2_decap_8
XFILLER_48_770 VPWR VGND sg13g2_decap_8
XFILLER_22_125 VPWR VGND sg13g2_decap_8
XFILLER_23_615 VPWR VGND sg13g2_decap_8
XFILLER_35_475 VPWR VGND sg13g2_decap_8
XFILLER_47_280 VPWR VGND sg13g2_decap_8
XFILLER_2_508 VPWR VGND sg13g2_decap_8
XFILLER_18_409 VPWR VGND sg13g2_decap_8
XFILLER_26_420 VPWR VGND sg13g2_decap_8
XFILLER_38_280 VPWR VGND sg13g2_decap_8
XFILLER_45_217 VPWR VGND sg13g2_decap_8
XFILLER_46_707 VPWR VGND sg13g2_fill_2
XFILLER_13_125 VPWR VGND sg13g2_decap_8
XFILLER_26_497 VPWR VGND sg13g2_decap_8
XFILLER_26_77 VPWR VGND sg13g2_decap_8
XFILLER_41_434 VPWR VGND sg13g2_decap_8
XFILLER_42_21 VPWR VGND sg13g2_decap_8
XFILLER_42_98 VPWR VGND sg13g2_decap_8
XFILLER_5_368 VPWR VGND sg13g2_decap_8
XFILLER_1_574 VPWR VGND sg13g2_decap_8
XFILLER_37_707 VPWR VGND sg13g2_fill_1
XFILLER_49_578 VPWR VGND sg13g2_decap_8
XFILLER_49_501 VPWR VGND sg13g2_decap_8
XFILLER_17_486 VPWR VGND sg13g2_decap_8
XFILLER_32_445 VPWR VGND sg13g2_decap_8
XFILLER_36_239 VPWR VGND sg13g2_decap_8
XFILLER_44_294 VPWR VGND sg13g2_decap_8
X_0982_ net111 VGND VPWR _0142_ state\[14\] clknet_5_17__leaf_clk sg13g2_dfrbpq_1
XFILLER_9_641 VPWR VGND sg13g2_decap_4
XFILLER_8_140 VPWR VGND sg13g2_decap_8
Xfanout108 net111 net108 VPWR VGND sg13g2_buf_1
Xfanout119 net120 net119 VPWR VGND sg13g2_buf_1
XFILLER_11_618 VPWR VGND sg13g2_fill_1
XFILLER_23_412 VPWR VGND sg13g2_decap_8
XFILLER_23_489 VPWR VGND sg13g2_decap_8
XFILLER_35_272 VPWR VGND sg13g2_decap_8
XFILLER_12_46 VPWR VGND sg13g2_decap_8
XFILLER_2_305 VPWR VGND sg13g2_decap_8
XFILLER_3_817 VPWR VGND sg13g2_decap_4
XFILLER_18_206 VPWR VGND sg13g2_decap_8
XFILLER_46_504 VPWR VGND sg13g2_decap_8
XFILLER_14_412 VPWR VGND sg13g2_decap_8
XFILLER_26_294 VPWR VGND sg13g2_decap_8
XFILLER_27_762 VPWR VGND sg13g2_decap_8
XFILLER_37_54 VPWR VGND sg13g2_decap_8
XFILLER_41_231 VPWR VGND sg13g2_decap_8
XFILLER_14_489 VPWR VGND sg13g2_decap_8
XFILLER_42_776 VPWR VGND sg13g2_fill_1
XFILLER_6_622 VPWR VGND sg13g2_fill_1
XFILLER_1_371 VPWR VGND sg13g2_decap_8
XFILLER_38_7 VPWR VGND sg13g2_decap_8
XFILLER_5_165 VPWR VGND sg13g2_decap_8
XFILLER_37_559 VPWR VGND sg13g2_decap_8
XFILLER_49_375 VPWR VGND sg13g2_decap_8
XFILLER_17_283 VPWR VGND sg13g2_decap_8
XFILLER_20_426 VPWR VGND sg13g2_decap_8
XFILLER_32_242 VPWR VGND sg13g2_decap_8
XFILLER_33_743 VPWR VGND sg13g2_fill_1
XFILLER_45_581 VPWR VGND sg13g2_decap_8
X_0896_ VPWR _0015_ state\[55\] VGND sg13g2_inv_1
X_0965_ net123 VGND VPWR _0125_ daisychain\[61\] clknet_5_26__leaf_clk sg13g2_dfrbpq_1
XFILLER_28_537 VPWR VGND sg13g2_decap_8
XFILLER_36_570 VPWR VGND sg13g2_decap_8
XFILLER_43_518 VPWR VGND sg13g2_decap_8
XFILLER_11_459 VPWR VGND sg13g2_decap_8
XFILLER_23_286 VPWR VGND sg13g2_decap_8
XFILLER_2_102 VPWR VGND sg13g2_decap_8
XFILLER_2_179 VPWR VGND sg13g2_decap_8
XFILLER_3_4 VPWR VGND sg13g2_decap_8
XFILLER_3_669 VPWR VGND sg13g2_decap_4
XFILLER_0_49 VPWR VGND sg13g2_decap_8
XFILLER_19_526 VPWR VGND sg13g2_decap_8
XFILLER_19_537 VPWR VGND sg13g2_fill_1
XFILLER_46_301 VPWR VGND sg13g2_decap_8
XFILLER_48_42 VPWR VGND sg13g2_decap_8
XFILLER_14_286 VPWR VGND sg13g2_decap_8
XFILLER_15_721 VPWR VGND sg13g2_fill_1
XFILLER_15_732 VPWR VGND sg13g2_decap_8
XFILLER_15_743 VPWR VGND sg13g2_fill_1
XFILLER_30_713 VPWR VGND sg13g2_fill_2
XFILLER_34_518 VPWR VGND sg13g2_decap_8
XFILLER_42_595 VPWR VGND sg13g2_decap_8
XFILLER_46_378 VPWR VGND sg13g2_decap_8
XFILLER_9_25 VPWR VGND sg13g2_decap_8
XFILLER_30_768 VPWR VGND sg13g2_fill_2
Xfanout90 net91 net90 VPWR VGND sg13g2_buf_1
X_0750_ _0349_ VPWR _0158_ VGND net85 _0055_ sg13g2_o21ai_1
X_0681_ VGND VPWR net31 daisychain\[53\] _0422_ net48 sg13g2_a21oi_1
XFILLER_6_452 VPWR VGND sg13g2_decap_8
XFILLER_25_529 VPWR VGND sg13g2_decap_8
XFILLER_37_334 VPWR VGND sg13g2_decap_8
XFILLER_49_172 VPWR VGND sg13g2_decap_8
XFILLER_20_223 VPWR VGND sg13g2_decap_8
XFILLER_33_562 VPWR VGND sg13g2_decap_8
X_0948_ net117 VGND VPWR _0108_ daisychain\[44\] clknet_5_5__leaf_clk sg13g2_dfrbpq_1
X_0879_ VPWR _0239_ daisychain\[46\] VGND sg13g2_inv_1
XFILLER_18_45 VPWR VGND sg13g2_decap_8
XFILLER_28_334 VPWR VGND sg13g2_decap_8
XFILLER_44_805 VPWR VGND sg13g2_decap_4
XFILLER_16_518 VPWR VGND sg13g2_decap_8
XFILLER_24_573 VPWR VGND sg13g2_decap_8
XFILLER_34_77 VPWR VGND sg13g2_decap_8
XFILLER_43_315 VPWR VGND sg13g2_decap_8
XFILLER_11_256 VPWR VGND sg13g2_decap_8
XFILLER_7_238 VPWR VGND sg13g2_decap_8
XFILLER_3_466 VPWR VGND sg13g2_decap_8
XFILLER_19_323 VPWR VGND sg13g2_decap_8
XFILLER_34_315 VPWR VGND sg13g2_decap_8
XFILLER_46_175 VPWR VGND sg13g2_decap_8
XFILLER_47_665 VPWR VGND sg13g2_decap_8
XFILLER_30_543 VPWR VGND sg13g2_decap_8
XFILLER_30_554 VPWR VGND sg13g2_fill_2
XFILLER_30_576 VPWR VGND sg13g2_decap_4
XFILLER_42_392 VPWR VGND sg13g2_decap_8
X_0802_ VPWR _0062_ state\[8\] VGND sg13g2_inv_1
X_0733_ _0298_ VPWR _0141_ VGND net88 _0036_ sg13g2_o21ai_1
X_0664_ _0243_ net76 _0408_ _0409_ VPWR VGND sg13g2_a21o_1
XFILLER_7_794 VPWR VGND sg13g2_decap_4
XFILLER_37_131 VPWR VGND sg13g2_decap_8
X_0595_ net94 VPWR _0357_ VGND net72 state\[33\] sg13g2_o21ai_1
XFILLER_1_70 VPWR VGND sg13g2_decap_8
XFILLER_21_521 VPWR VGND sg13g2_decap_8
XFILLER_25_326 VPWR VGND sg13g2_decap_8
XFILLER_40_329 VPWR VGND sg13g2_decap_8
XFILLER_21_576 VPWR VGND sg13g2_decap_8
XFILLER_0_469 VPWR VGND sg13g2_decap_8
XFILLER_29_33 VPWR VGND sg13g2_decap_8
XFILLER_16_315 VPWR VGND sg13g2_decap_8
XFILLER_28_131 VPWR VGND sg13g2_decap_8