* NGSPICE file created from heichips25_pudding.ext - technology: ihp-sg13g2

* Black-box entry subcircuit for sg13g2_decap_8 abstract view
.subckt sg13g2_decap_8 VDD VSS
.ends

* Black-box entry subcircuit for sg13g2_nand2_1 abstract view
.subckt sg13g2_nand2_1 Y A B VDD VSS
.ends

* Black-box entry subcircuit for sg13g2_decap_4 abstract view
.subckt sg13g2_decap_4 VDD VSS
.ends

* Black-box entry subcircuit for sg13g2_tiehi abstract view
.subckt sg13g2_tiehi VDD VSS L_HI
.ends

* Black-box entry subcircuit for sg13g2_mux2_1 abstract view
.subckt sg13g2_mux2_1 A0 A1 S X VDD VSS
.ends

* Black-box entry subcircuit for sg13g2_inv_1 abstract view
.subckt sg13g2_inv_1 VDD Y A VSS
.ends

* Black-box entry subcircuit for sg13g2_a21oi_1 abstract view
.subckt sg13g2_a21oi_1 VSS VDD A1 A2 Y B1
.ends

* Black-box entry subcircuit for sg13g2_buf_1 abstract view
.subckt sg13g2_buf_1 A X VDD VSS
.ends

* Black-box entry subcircuit for sg13g2_fill_1 abstract view
.subckt sg13g2_fill_1 VDD VSS
.ends

* Black-box entry subcircuit for sg13g2_fill_2 abstract view
.subckt sg13g2_fill_2 VDD VSS
.ends

* Black-box entry subcircuit for sg13g2_dfrbpq_1 abstract view
.subckt sg13g2_dfrbpq_1 RESET_B VSS VDD D Q CLK
.ends

* Black-box entry subcircuit for sg13g2_o21ai_1 abstract view
.subckt sg13g2_o21ai_1 B1 VDD Y VSS A1 A2
.ends

* Black-box entry subcircuit for sg13g2_buf_8 abstract view
.subckt sg13g2_buf_8 A X VDD VSS
.ends

* Black-box entry subcircuit for sg13g2_inv_2 abstract view
.subckt sg13g2_inv_2 Y A VDD VSS
.ends

* Black-box entry subcircuit for sg13g2_buf_16 abstract view
.subckt sg13g2_buf_16 X A VDD VSS
.ends

* Black-box entry subcircuit for sg13g2_inv_8 abstract view
.subckt sg13g2_inv_8 Y A VDD VSS
.ends

* Black-box entry subcircuit for sg13g2_inv_4 abstract view
.subckt sg13g2_inv_4 A Y VDD VSS
.ends

* Black-box entry subcircuit for analog_wires abstract view
.subckt analog_wires Iout VcascP[1] VcascP[0] VbiasP[1] VbiasP[0] VDDA[1] VDDA[0]
+ i_in i_out
.ends

* Black-box entry subcircuit for dac128module abstract view
.subckt dac128module VbiasP[1] Iout VbiasP[0] VcascP[1] VcascP[0] ON[64] ONB[64] ON[65]
+ ONB[65] ON[66] ONB[66] ON[67] ONB[67] ON[68] ONB[68] ON[69] ONB[69] ON[70] ONB[70]
+ ON[71] ONB[71] ON[72] ONB[72] EN[2] ENB[2] ON[73] ONB[73] ON[74] ONB[74] ON[75]
+ ONB[75] ON[76] ONB[76] ON[77] ONB[77] ON[78] ONB[78] ON[79] ONB[79] ON[80] ONB[80]
+ ON[81] ONB[81] ON[82] ONB[82] ON[83] ONB[83] ON[84] ONB[84] ON[85] ONB[85] ON[86]
+ ONB[86] ON[87] ONB[87] ON[88] ONB[88] ON[89] ONB[89] ON[90] ONB[90] ON[91] ONB[91]
+ ON[92] ONB[92] ON[93] ONB[93] ON[94] ONB[94] ON[95] ONB[95] ON[96] ONB[96] ON[97]
+ ONB[97] ON[98] ONB[98] ON[99] ONB[99] ON[100] ONB[100] ON[101] ONB[101] ON[102]
+ ONB[102] ON[103] ONB[103] ON[104] ONB[104] ON[105] ONB[105] ON[106] ONB[106] ON[107]
+ ONB[107] ON[108] ONB[108] ON[109] ONB[109] ON[110] ONB[110] ON[111] ONB[111] ON[112]
+ ONB[112] ON[113] ONB[113] ON[114] ONB[114] ON[115] ONB[115] ON[116] ONB[116] ON[117]
+ ONB[117] ON[118] ONB[118] ON[119] ONB[119] ON[120] ONB[120] ON[121] ONB[121] ON[122]
+ ONB[122] EN[3] ENB[3] ON[123] ONB[123] ON[124] ONB[124] ON[125] ONB[125] ON[126]
+ ONB[126] ON[127] ONB[127] ON[0] ONB[0] ON[1] ONB[1] ON[2] ONB[2] ON[3] ONB[3] ON[4]
+ ONB[4] ON[5] ONB[5] ON[6] EN[0] ENB[0] ONB[6] ON[7] ONB[7] ON[8] ONB[8] ON[9] ONB[9]
+ ON[10] ONB[10] ON[11] ONB[11] ON[12] ONB[12] ON[13] ONB[13] ON[14] ONB[14] ON[15]
+ ONB[15] ON[16] ONB[16] ON[17] ONB[17] ON[18] ONB[18] ON[19] ONB[19] ON[20] ONB[20]
+ ON[21] ONB[21] ON[22] ONB[22] ON[23] ONB[23] ON[24] ONB[24] ON[25] ONB[25] ON[26]
+ ONB[26] ON[27] ONB[27] ON[28] ONB[28] ON[29] ONB[29] ON[30] ONB[30] ON[31] ONB[31]
+ ON[33] ONB[33] ON[32] ONB[32] ON[34] ONB[34] ON[35] ONB[35] ON[36] ONB[36] ON[37]
+ ONB[37] ON[38] ONB[38] ON[39] ONB[39] ON[40] ONB[40] ON[41] ONB[41] ON[42] ONB[42]
+ ON[43] ONB[43] ON[44] ONB[44] ON[45] ONB[45] ON[46] ONB[46] ON[47] ONB[47] ON[48]
+ ONB[48] ON[49] ONB[49] ON[50] ONB[50] ON[51] ONB[51] ON[52] ONB[52] ON[53] ONB[53]
+ ON[54] ONB[54] ON[55] ONB[55] ON[56] ONB[56] ON[57] ONB[57] ON[58] ONB[58] ON[59]
+ ONB[59] ON[60] ONB[60] ON[61] ONB[61] ON[62] ONB[62] ON[63] ONB[63] EN[1] ENB[1]
+ VSS VDD
.ends

* Black-box entry subcircuit for sg13g2_or2_1 abstract view
.subckt sg13g2_or2_1 VSS VDD X B A
.ends

* Black-box entry subcircuit for sg13g2_nor2_1 abstract view
.subckt sg13g2_nor2_1 A B Y VDD VSS
.ends

.subckt heichips25_pudding VGND VPWR clk ena i_in i_out rst_n ui_in[0] ui_in[1] ui_in[2]
+ ui_in[3] ui_in[4] ui_in[5] ui_in[6] ui_in[7] uio_in[0] uio_in[1] uio_in[2] uio_in[3]
+ uio_in[4] uio_in[5] uio_in[6] uio_in[7] uio_oe[0] uio_oe[1] uio_oe[2] uio_oe[3]
+ uio_oe[4] uio_oe[5] uio_oe[6] uio_oe[7] uio_out[0] uio_out[1] uio_out[2] uio_out[3]
+ uio_out[4] uio_out[5] uio_out[6] uio_out[7] uo_out[0] uo_out[1] uo_out[2] uo_out[3]
+ uo_out[4] uo_out[5] uo_out[6] uo_out[7]
XFILLER_39_266 VPWR VGND sg13g2_decap_8
X_2106_ _0743_ net100 state\[25\] VPWR VGND sg13g2_nand2_1
X_2037_ _0703_ net157 _0702_ VPWR VGND sg13g2_nand2_1
XFILLER_10_339 VPWR VGND sg13g2_decap_8
XFILLER_22_144 VPWR VGND sg13g2_decap_8
XFILLER_13_111 VPWR VGND sg13g2_decap_8
XFILLER_26_472 VPWR VGND sg13g2_decap_4
XFILLER_26_85 VPWR VGND sg13g2_decap_8
XFILLER_45_203 VPWR VGND sg13g2_decap_8
XFILLER_13_188 VPWR VGND sg13g2_decap_8
XFILLER_14_667 VPWR VGND sg13g2_decap_4
XFILLER_42_84 VPWR VGND sg13g2_decap_8
XFILLER_5_321 VPWR VGND sg13g2_decap_8
XFILLER_9_126 VPWR VGND sg13g2_decap_8
XFILLER_5_398 VPWR VGND sg13g2_decap_8
XFILLER_36_203 VPWR VGND sg13g2_decap_8
XFILLER_3_78 VPWR VGND sg13g2_decap_8
XFILLER_49_564 VPWR VGND sg13g2_decap_8
XFILLER_17_494 VPWR VGND sg13g2_decap_8
XFILLER_44_280 VPWR VGND sg13g2_decap_8
X_2488__394 VPWR VGND net393 sg13g2_tiehi
X_1606_ state\[38\] daisychain\[38\] net139 _1002_ VPWR VGND sg13g2_mux2_1
X_1399_ VPWR _0032_ state\[13\] VGND sg13g2_inv_1
X_1468_ VGND VPWR net92 daisychain\[9\] _0892_ net45 sg13g2_a21oi_1
X_1537_ _0947_ net163 _0946_ VPWR VGND sg13g2_nand2_1
Xfanout105 net106 net105 VPWR VGND sg13g2_buf_1
Xfanout116 net117 net116 VPWR VGND sg13g2_buf_1
Xfanout127 net131 net127 VPWR VGND sg13g2_buf_1
Xfanout138 net141 net138 VPWR VGND sg13g2_buf_1
Xfanout149 net150 net149 VPWR VGND sg13g2_buf_1
XFILLER_27_258 VPWR VGND sg13g2_fill_1
XFILLER_35_280 VPWR VGND sg13g2_decap_8
XFILLER_42_217 VPWR VGND sg13g2_decap_8
XFILLER_10_136 VPWR VGND sg13g2_decap_8
XFILLER_6_107 VPWR VGND sg13g2_decap_8
XFILLER_7_608 VPWR VGND sg13g2_fill_2
XFILLER_7_619 VPWR VGND sg13g2_fill_1
XFILLER_12_98 VPWR VGND sg13g2_decap_8
XFILLER_2_357 VPWR VGND sg13g2_decap_8
XFILLER_5_4 VPWR VGND sg13g2_fill_2
XFILLER_18_236 VPWR VGND sg13g2_decap_8
XFILLER_37_84 VPWR VGND sg13g2_decap_8
XFILLER_46_534 VPWR VGND sg13g2_fill_1
XFILLER_26_280 VPWR VGND sg13g2_fill_2
XFILLER_33_228 VPWR VGND sg13g2_decap_8
XFILLER_41_294 VPWR VGND sg13g2_decap_8
X_2440_ net328 VGND VPWR _0256_ state\[0\] clknet_leaf_1_clk sg13g2_dfrbpq_1
XFILLER_5_195 VPWR VGND sg13g2_decap_8
X_1322_ VPWR _0117_ state\[90\] VGND sg13g2_inv_1
X_2371_ net210 VGND VPWR _0187_ daisychain\[59\] clknet_leaf_12_clk sg13g2_dfrbpq_1
X_2340__273 VPWR VGND net272 sg13g2_tiehi
XFILLER_49_361 VPWR VGND sg13g2_decap_8
X_2555__248 VPWR VGND net247 sg13g2_tiehi
X_2416__377 VPWR VGND net376 sg13g2_tiehi
XFILLER_9_490 VPWR VGND sg13g2_fill_2
XFILLER_23_20 VPWR VGND sg13g2_decap_8
XFILLER_23_97 VPWR VGND sg13g2_decap_4
XFILLER_2_154 VPWR VGND sg13g2_decap_8
XFILLER_0_35 VPWR VGND sg13g2_decap_8
XFILLER_46_364 VPWR VGND sg13g2_decap_8
XFILLER_14_261 VPWR VGND sg13g2_decap_8
XFILLER_15_784 VPWR VGND sg13g2_fill_1
XFILLER_30_710 VPWR VGND sg13g2_fill_1
XFILLER_30_743 VPWR VGND sg13g2_fill_1
XFILLER_30_776 VPWR VGND sg13g2_fill_1
XFILLER_9_77 VPWR VGND sg13g2_decap_8
X_2450__290 VPWR VGND net289 sg13g2_tiehi
X_1940_ VGND VPWR _0623_ _0624_ _0232_ _0625_ sg13g2_a21oi_1
X_1871_ state\[91\] daisychain\[91\] net151 _0570_ VPWR VGND sg13g2_mux2_1
XFILLER_6_471 VPWR VGND sg13g2_decap_4
X_2561__296 VPWR VGND net295 sg13g2_tiehi
X_2423_ net362 VGND VPWR _0239_ daisychain\[111\] clknet_leaf_2_clk sg13g2_dfrbpq_1
X_1305_ VPWR _0008_ state\[107\] VGND sg13g2_inv_1
X_2354_ net244 VGND VPWR _0170_ daisychain\[42\] clknet_leaf_14_clk sg13g2_dfrbpq_1
X_2285_ VGND VPWR _0663_ _0832_ _0370_ net76 sg13g2_a21oi_1
XFILLER_25_526 VPWR VGND sg13g2_decap_8
XFILLER_37_364 VPWR VGND sg13g2_decap_8
XFILLER_20_264 VPWR VGND sg13g2_decap_8
XFILLER_18_75 VPWR VGND sg13g2_decap_8
XFILLER_28_364 VPWR VGND sg13g2_fill_1
XFILLER_43_301 VPWR VGND sg13g2_decap_8
XFILLER_48_629 VPWR VGND sg13g2_fill_1
X_2319__315 VPWR VGND net314 sg13g2_tiehi
XFILLER_11_220 VPWR VGND sg13g2_decap_8
XFILLER_34_96 VPWR VGND sg13g2_decap_8
XFILLER_43_378 VPWR VGND sg13g2_decap_8
XFILLER_11_297 VPWR VGND sg13g2_decap_8
XFILLER_3_463 VPWR VGND sg13g2_decap_8
XFILLER_7_257 VPWR VGND sg13g2_decap_8
XFILLER_8_758 VPWR VGND sg13g2_decap_8
XFILLER_19_320 VPWR VGND sg13g2_fill_2
XFILLER_19_331 VPWR VGND sg13g2_decap_8
X_2070_ _0725_ net101 state\[7\] VPWR VGND sg13g2_nand2_1
XFILLER_22_507 VPWR VGND sg13g2_fill_1
XFILLER_34_334 VPWR VGND sg13g2_fill_1
XFILLER_46_161 VPWR VGND sg13g2_decap_8
XFILLER_47_673 VPWR VGND sg13g2_decap_8
XFILLER_47_684 VPWR VGND sg13g2_fill_2
X_1923_ VGND VPWR net112 daisychain\[100\] _0612_ net54 sg13g2_a21oi_1
X_1854_ net196 VPWR _0557_ VGND daisychain\[87\] net39 sg13g2_o21ai_1
X_1785_ VGND VPWR _0499_ _0500_ _0201_ _0501_ sg13g2_a21oi_1
XFILLER_7_780 VPWR VGND sg13g2_fill_1
X_2406_ net396 VGND VPWR _0222_ daisychain\[94\] clknet_leaf_4_clk sg13g2_dfrbpq_1
XFILLER_37_161 VPWR VGND sg13g2_decap_8
X_2337_ net278 VGND VPWR _0153_ daisychain\[25\] clknet_leaf_16_clk sg13g2_dfrbpq_1
X_2268_ _0824_ net107 state\[106\] VPWR VGND sg13g2_nand2_1
X_2199_ VGND VPWR _0491_ _0789_ _0327_ net87 sg13g2_a21oi_1
XFILLER_25_345 VPWR VGND sg13g2_decap_8
XFILLER_40_315 VPWR VGND sg13g2_decap_8
XFILLER_4_227 VPWR VGND sg13g2_decap_8
X_2464__234 VPWR VGND net233 sg13g2_tiehi
XFILLER_0_455 VPWR VGND sg13g2_decap_8
XFILLER_29_52 VPWR VGND sg13g2_decap_8
XFILLER_48_448 VPWR VGND sg13g2_decap_8
XFILLER_16_356 VPWR VGND sg13g2_fill_1
XFILLER_28_172 VPWR VGND sg13g2_decap_8
XFILLER_43_175 VPWR VGND sg13g2_decap_8
XFILLER_44_687 VPWR VGND sg13g2_fill_2
XFILLER_45_84 VPWR VGND sg13g2_decap_8
X_2512__268 VPWR VGND net267 sg13g2_tiehi
XFILLER_3_260 VPWR VGND sg13g2_decap_8
X_2443__318 VPWR VGND net317 sg13g2_tiehi
X_1570_ VGND VPWR _0971_ _0972_ _0158_ _0973_ sg13g2_a21oi_1
XFILLER_19_183 VPWR VGND sg13g2_decap_8
XFILLER_20_4 VPWR VGND sg13g2_decap_4
X_2122_ _0751_ net117 state\[33\] VPWR VGND sg13g2_nand2_1
X_2053_ VGND VPWR net91 daisychain\[126\] _0716_ net48 sg13g2_a21oi_1
XFILLER_22_348 VPWR VGND sg13g2_fill_1
XFILLER_34_131 VPWR VGND sg13g2_decap_8
XFILLER_35_687 VPWR VGND sg13g2_decap_8
X_1906_ state\[98\] daisychain\[98\] net142 _0598_ VPWR VGND sg13g2_mux2_1
X_1837_ _0543_ net173 _0542_ VPWR VGND sg13g2_nand2_1
X_1768_ VGND VPWR net129 daisychain\[69\] _0488_ net64 sg13g2_a21oi_1
X_1699_ net194 VPWR _0433_ VGND daisychain\[56\] net37 sg13g2_o21ai_1
XFILLER_15_65 VPWR VGND sg13g2_decap_8
XFILLER_25_186 VPWR VGND sg13g2_decap_8
XFILLER_31_53 VPWR VGND sg13g2_decap_8
XFILLER_40_112 VPWR VGND sg13g2_decap_8
XFILLER_40_189 VPWR VGND sg13g2_decap_8
XFILLER_41_668 VPWR VGND sg13g2_decap_8
XFILLER_5_514 VPWR VGND sg13g2_fill_2
XFILLER_9_308 VPWR VGND sg13g2_decap_8
XFILLER_5_569 VPWR VGND sg13g2_decap_4
Xoutput7 net7 uio_out[0] VPWR VGND sg13g2_buf_1
Xoutput20 net20 uo_out[5] VPWR VGND sg13g2_buf_1
XFILLER_0_252 VPWR VGND sg13g2_decap_8
XFILLER_1_775 VPWR VGND sg13g2_fill_1
XFILLER_48_245 VPWR VGND sg13g2_decap_8
XFILLER_49_779 VPWR VGND sg13g2_decap_4
XFILLER_16_153 VPWR VGND sg13g2_decap_8
XFILLER_17_665 VPWR VGND sg13g2_fill_1
XFILLER_31_123 VPWR VGND sg13g2_decap_8
XFILLER_44_462 VPWR VGND sg13g2_decap_8
XFILLER_44_473 VPWR VGND sg13g2_fill_1
XFILLER_8_341 VPWR VGND sg13g2_decap_8
X_1622_ _1015_ net169 _1014_ VPWR VGND sg13g2_nand2_1
X_1484_ net180 VPWR _0905_ VGND daisychain\[13\] net23 sg13g2_o21ai_1
X_1553_ VGND VPWR net100 daisychain\[26\] _0960_ net52 sg13g2_a21oi_1
X_2380__449 VPWR VGND net448 sg13g2_tiehi
XFILLER_39_245 VPWR VGND sg13g2_decap_8
X_2105_ VGND VPWR _0947_ _0742_ _0280_ net73 sg13g2_a21oi_1
X_2036_ state\[124\] daisychain\[124\] net135 _0702_ VPWR VGND sg13g2_mux2_1
XFILLER_10_318 VPWR VGND sg13g2_decap_8
XFILLER_11_819 VPWR VGND sg13g2_decap_4
XFILLER_22_123 VPWR VGND sg13g2_decap_8
XFILLER_31_690 VPWR VGND sg13g2_decap_8
X_2350__253 VPWR VGND net252 sg13g2_tiehi
XFILLER_2_539 VPWR VGND sg13g2_decap_8
X_2426__357 VPWR VGND net356 sg13g2_tiehi
XFILLER_13_167 VPWR VGND sg13g2_decap_8
XFILLER_14_646 VPWR VGND sg13g2_fill_1
XFILLER_14_657 VPWR VGND sg13g2_fill_1
XFILLER_26_42 VPWR VGND sg13g2_decap_4
XFILLER_26_64 VPWR VGND sg13g2_decap_8
XFILLER_41_421 VPWR VGND sg13g2_decap_8
XFILLER_41_432 VPWR VGND sg13g2_fill_2
XFILLER_45_259 VPWR VGND sg13g2_decap_8
XFILLER_9_105 VPWR VGND sg13g2_decap_8
XFILLER_42_63 VPWR VGND sg13g2_decap_8
XFILLER_5_300 VPWR VGND sg13g2_decap_8
XFILLER_6_812 VPWR VGND sg13g2_decap_8
XFILLER_1_550 VPWR VGND sg13g2_fill_1
XFILLER_3_35 VPWR VGND sg13g2_fill_2
XFILLER_3_57 VPWR VGND sg13g2_decap_8
XFILLER_5_377 VPWR VGND sg13g2_decap_8
X_2327__299 VPWR VGND net298 sg13g2_tiehi
XFILLER_36_259 VPWR VGND sg13g2_decap_8
XFILLER_49_543 VPWR VGND sg13g2_decap_8
XFILLER_45_793 VPWR VGND sg13g2_fill_2
X_1536_ state\[24\] daisychain\[24\] net139 _0946_ VPWR VGND sg13g2_mux2_1
X_1605_ VGND VPWR _0999_ _1000_ _0165_ _1001_ sg13g2_a21oi_1
X_1398_ VPWR _0033_ state\[14\] VGND sg13g2_inv_1
X_1467_ _0891_ net158 _0890_ VPWR VGND sg13g2_nand2_1
Xfanout106 net114 net106 VPWR VGND sg13g2_buf_1
Xfanout117 net123 net117 VPWR VGND sg13g2_buf_1
Xfanout128 net130 net128 VPWR VGND sg13g2_buf_1
Xfanout139 net141 net139 VPWR VGND sg13g2_buf_1
X_2495__366 VPWR VGND net365 sg13g2_tiehi
XFILLER_27_237 VPWR VGND sg13g2_decap_8
XFILLER_36_771 VPWR VGND sg13g2_decap_4
XFILLER_36_782 VPWR VGND sg13g2_decap_8
X_2019_ net179 VPWR _0689_ VGND daisychain\[120\] net25 sg13g2_o21ai_1
XFILLER_10_115 VPWR VGND sg13g2_decap_8
XFILLER_12_77 VPWR VGND sg13g2_decap_8
XFILLER_2_336 VPWR VGND sg13g2_decap_8
XFILLER_18_215 VPWR VGND sg13g2_decap_8
XFILLER_19_749 VPWR VGND sg13g2_fill_1
XFILLER_33_207 VPWR VGND sg13g2_decap_8
XFILLER_37_63 VPWR VGND sg13g2_decap_8
XFILLER_41_273 VPWR VGND sg13g2_decap_8
XFILLER_5_174 VPWR VGND sg13g2_decap_8
XFILLER_6_697 VPWR VGND sg13g2_decap_8
XFILLER_49_340 VPWR VGND sg13g2_decap_8
X_1321_ VPWR _0118_ state\[91\] VGND sg13g2_inv_1
X_2379__451 VPWR VGND net450 sg13g2_tiehi
X_2370_ net212 VGND VPWR _0186_ daisychain\[58\] clknet_leaf_13_clk sg13g2_dfrbpq_1
XFILLER_17_281 VPWR VGND sg13g2_decap_8
XFILLER_24_218 VPWR VGND sg13g2_fill_2
XFILLER_33_752 VPWR VGND sg13g2_decap_4
XFILLER_37_579 VPWR VGND sg13g2_fill_1
XFILLER_20_479 VPWR VGND sg13g2_fill_1
XFILLER_32_284 VPWR VGND sg13g2_decap_8
X_1519_ net185 VPWR _0933_ VGND daisychain\[20\] net28 sg13g2_o21ai_1
X_2499_ net349 VGND VPWR _0315_ state\[59\] clknet_leaf_12_clk sg13g2_dfrbpq_1
XFILLER_28_513 VPWR VGND sg13g2_fill_2
XFILLER_28_524 VPWR VGND sg13g2_decap_8
XFILLER_11_457 VPWR VGND sg13g2_fill_1
XFILLER_23_76 VPWR VGND sg13g2_decap_8
XFILLER_7_439 VPWR VGND sg13g2_decap_8
XFILLER_19_502 VPWR VGND sg13g2_fill_2
XFILLER_19_513 VPWR VGND sg13g2_fill_1
XFILLER_2_133 VPWR VGND sg13g2_decap_8
XFILLER_48_84 VPWR VGND sg13g2_decap_8
XFILLER_0_14 VPWR VGND sg13g2_decap_8
XFILLER_14_240 VPWR VGND sg13g2_decap_8
XFILLER_34_549 VPWR VGND sg13g2_fill_1
XFILLER_46_343 VPWR VGND sg13g2_decap_8
X_2515__244 VPWR VGND net243 sg13g2_tiehi
XFILLER_30_722 VPWR VGND sg13g2_fill_2
XFILLER_30_755 VPWR VGND sg13g2_fill_2
X_1870_ VGND VPWR _0567_ _0568_ _0218_ _0569_ sg13g2_a21oi_1
XFILLER_6_450 VPWR VGND sg13g2_decap_8
X_2422_ net364 VGND VPWR _0238_ daisychain\[110\] clknet_leaf_4_clk sg13g2_dfrbpq_1
X_2353_ net246 VGND VPWR _0169_ daisychain\[41\] clknet_leaf_14_clk sg13g2_dfrbpq_1
XFILLER_37_343 VPWR VGND sg13g2_decap_8
XFILLER_38_822 VPWR VGND sg13g2_fill_1
X_1304_ VPWR _0009_ state\[108\] VGND sg13g2_inv_1
X_2284_ _0832_ net108 state\[114\] VPWR VGND sg13g2_nand2_1
XFILLER_40_508 VPWR VGND sg13g2_fill_2
XFILLER_20_243 VPWR VGND sg13g2_decap_8
XFILLER_4_409 VPWR VGND sg13g2_decap_8
X_1999_ net181 VPWR _0673_ VGND daisychain\[116\] net24 sg13g2_o21ai_1
XFILLER_16_505 VPWR VGND sg13g2_fill_1
XFILLER_16_538 VPWR VGND sg13g2_fill_2
XFILLER_18_54 VPWR VGND sg13g2_decap_8
XFILLER_28_310 VPWR VGND sg13g2_fill_2
XFILLER_43_357 VPWR VGND sg13g2_decap_8
XFILLER_11_276 VPWR VGND sg13g2_decap_8
XFILLER_12_755 VPWR VGND sg13g2_decap_4
XFILLER_34_75 VPWR VGND sg13g2_decap_8
XFILLER_7_236 VPWR VGND sg13g2_decap_8
X_2549__384 VPWR VGND net383 sg13g2_tiehi
XFILLER_3_442 VPWR VGND sg13g2_decap_8
XFILLER_46_140 VPWR VGND sg13g2_decap_8
XFILLER_19_387 VPWR VGND sg13g2_fill_1
XFILLER_34_313 VPWR VGND sg13g2_decap_8
XFILLER_34_346 VPWR VGND sg13g2_decap_8
X_1922_ _0611_ net166 _0610_ VPWR VGND sg13g2_nand2_1
XFILLER_30_563 VPWR VGND sg13g2_fill_1
X_1853_ VGND VPWR net124 daisychain\[86\] _0556_ net64 sg13g2_a21oi_1
X_1784_ net198 VPWR _0501_ VGND daisychain\[73\] net41 sg13g2_o21ai_1
XFILLER_41_0 VPWR VGND sg13g2_decap_8
X_2405_ net398 VGND VPWR _0221_ daisychain\[93\] clknet_leaf_4_clk sg13g2_dfrbpq_1
X_2336_ net280 VGND VPWR _0152_ daisychain\[24\] clknet_leaf_16_clk sg13g2_dfrbpq_1
XFILLER_29_129 VPWR VGND sg13g2_decap_8
XFILLER_37_140 VPWR VGND sg13g2_decap_8
X_2390__429 VPWR VGND net428 sg13g2_tiehi
X_2267_ VGND VPWR _0627_ _0823_ _0361_ net76 sg13g2_a21oi_1
X_2198_ _0789_ net130 state\[71\] VPWR VGND sg13g2_nand2_1
XFILLER_4_206 VPWR VGND sg13g2_decap_8
X_2360__233 VPWR VGND net232 sg13g2_tiehi
XFILLER_0_434 VPWR VGND sg13g2_decap_8
XFILLER_29_31 VPWR VGND sg13g2_decap_8
XFILLER_48_427 VPWR VGND sg13g2_decap_8
X_2471__206 VPWR VGND net205 sg13g2_tiehi
XFILLER_24_390 VPWR VGND sg13g2_fill_1
XFILLER_28_151 VPWR VGND sg13g2_decap_8
XFILLER_31_305 VPWR VGND sg13g2_fill_2
XFILLER_31_338 VPWR VGND sg13g2_fill_1
XFILLER_43_154 VPWR VGND sg13g2_decap_8
XFILLER_44_633 VPWR VGND sg13g2_fill_1
XFILLER_44_644 VPWR VGND sg13g2_fill_2
XFILLER_45_63 VPWR VGND sg13g2_decap_8
X_2436__337 VPWR VGND net336 sg13g2_tiehi
XFILLER_12_541 VPWR VGND sg13g2_fill_1
XFILLER_12_585 VPWR VGND sg13g2_decap_4
XFILLER_6_79 VPWR VGND sg13g2_decap_8
XFILLER_19_162 VPWR VGND sg13g2_decap_8
XFILLER_34_110 VPWR VGND sg13g2_decap_8
XFILLER_35_622 VPWR VGND sg13g2_fill_1
X_2337__279 VPWR VGND net278 sg13g2_tiehi
X_2121_ VGND VPWR _0979_ _0750_ _0288_ net74 sg13g2_a21oi_1
X_2052_ _0715_ net157 _0714_ VPWR VGND sg13g2_nand2_1
XFILLER_34_187 VPWR VGND sg13g2_decap_8
XFILLER_35_699 VPWR VGND sg13g2_decap_8
X_1905_ VGND VPWR _0595_ _0596_ _0225_ _0597_ sg13g2_a21oi_1
XFILLER_30_393 VPWR VGND sg13g2_decap_4
X_1836_ state\[84\] daisychain\[84\] net152 _0542_ VPWR VGND sg13g2_mux2_1
X_1767_ _0487_ net176 _0486_ VPWR VGND sg13g2_nand2_1
X_1698_ VGND VPWR net119 daisychain\[55\] _0432_ net59 sg13g2_a21oi_1
X_2319_ net314 VGND VPWR _0135_ daisychain\[7\] clknet_leaf_17_clk sg13g2_dfrbpq_1
XFILLER_13_349 VPWR VGND sg13g2_decap_8
XFILLER_14_817 VPWR VGND sg13g2_decap_4
XFILLER_25_165 VPWR VGND sg13g2_decap_8
XFILLER_31_32 VPWR VGND sg13g2_decap_8
XFILLER_40_168 VPWR VGND sg13g2_decap_8
XFILLER_0_231 VPWR VGND sg13g2_decap_8
XFILLER_5_548 VPWR VGND sg13g2_decap_8
Xoutput8 net8 uio_out[1] VPWR VGND sg13g2_buf_1
Xoutput21 net21 uo_out[6] VPWR VGND sg13g2_buf_1
Xoutput10 net10 uio_out[3] VPWR VGND sg13g2_buf_1
XFILLER_16_132 VPWR VGND sg13g2_decap_8
XFILLER_44_441 VPWR VGND sg13g2_decap_8
XFILLER_48_224 VPWR VGND sg13g2_decap_8
XFILLER_12_371 VPWR VGND sg13g2_fill_2
XFILLER_17_699 VPWR VGND sg13g2_fill_2
XFILLER_31_102 VPWR VGND sg13g2_decap_8
XFILLER_31_179 VPWR VGND sg13g2_decap_8
XFILLER_40_680 VPWR VGND sg13g2_decap_4
XFILLER_8_320 VPWR VGND sg13g2_decap_8
XFILLER_4_570 VPWR VGND sg13g2_fill_2
XFILLER_8_397 VPWR VGND sg13g2_decap_8
X_1552_ _0959_ net161 _0958_ VPWR VGND sg13g2_nand2_1
X_1621_ state\[41\] daisychain\[41\] net146 _1014_ VPWR VGND sg13g2_mux2_1
XFILLER_27_408 VPWR VGND sg13g2_decap_8
XFILLER_39_224 VPWR VGND sg13g2_decap_8
X_1483_ VGND VPWR net92 daisychain\[12\] _0904_ net45 sg13g2_a21oi_1
X_2104_ _0742_ net105 state\[24\] VPWR VGND sg13g2_nand2_1
XFILLER_22_102 VPWR VGND sg13g2_decap_8
X_2035_ VGND VPWR _0699_ _0700_ _0251_ _0701_ sg13g2_a21oi_1
XFILLER_22_179 VPWR VGND sg13g2_decap_8
X_2389__431 VPWR VGND net430 sg13g2_tiehi
XFILLER_2_518 VPWR VGND sg13g2_decap_8
X_1819_ net199 VPWR _0529_ VGND daisychain\[80\] net42 sg13g2_o21ai_1
XFILLER_45_238 VPWR VGND sg13g2_decap_8
XFILLER_13_146 VPWR VGND sg13g2_decap_8
XFILLER_41_444 VPWR VGND sg13g2_fill_1
XFILLER_42_42 VPWR VGND sg13g2_decap_8
XFILLER_5_356 VPWR VGND sg13g2_decap_8
XFILLER_49_522 VPWR VGND sg13g2_decap_8
XFILLER_36_238 VPWR VGND sg13g2_decap_8
XFILLER_45_761 VPWR VGND sg13g2_decap_4
XFILLER_49_588 VPWR VGND sg13g2_decap_8
XFILLER_49_599 VPWR VGND sg13g2_fill_2
X_2518__220 VPWR VGND net219 sg13g2_tiehi
XFILLER_20_606 VPWR VGND sg13g2_fill_1
XFILLER_8_194 VPWR VGND sg13g2_decap_8
X_1535_ VGND VPWR _0943_ _0944_ _0151_ _0945_ sg13g2_a21oi_1
Xfanout107 net108 net107 VPWR VGND sg13g2_buf_1
Xfanout118 net121 net118 VPWR VGND sg13g2_buf_1
Xfanout129 net130 net129 VPWR VGND sg13g2_buf_1
X_1604_ net185 VPWR _1001_ VGND daisychain\[37\] net28 sg13g2_o21ai_1
XFILLER_27_216 VPWR VGND sg13g2_decap_8
XFILLER_43_709 VPWR VGND sg13g2_decap_8
X_1397_ VPWR _0034_ state\[15\] VGND sg13g2_inv_1
X_1466_ state\[10\] daisychain\[10\] net133 _0890_ VPWR VGND sg13g2_mux2_1
XFILLER_23_444 VPWR VGND sg13g2_fill_2
X_2018_ VGND VPWR net97 daisychain\[119\] _0688_ net46 sg13g2_a21oi_1
XFILLER_3_816 VPWR VGND sg13g2_decap_8
XFILLER_19_706 VPWR VGND sg13g2_fill_2
XFILLER_2_315 VPWR VGND sg13g2_decap_8
XFILLER_5_6 VPWR VGND sg13g2_fill_1
XFILLER_14_411 VPWR VGND sg13g2_decap_8
XFILLER_19_717 VPWR VGND sg13g2_fill_2
XFILLER_26_282 VPWR VGND sg13g2_fill_1
XFILLER_37_42 VPWR VGND sg13g2_decap_8
XFILLER_46_569 VPWR VGND sg13g2_fill_2
XFILLER_10_672 VPWR VGND sg13g2_decap_8
XFILLER_14_466 VPWR VGND sg13g2_decap_4
XFILLER_14_488 VPWR VGND sg13g2_fill_2
XFILLER_41_252 VPWR VGND sg13g2_decap_8
XFILLER_45_7 VPWR VGND sg13g2_decap_8
XFILLER_5_153 VPWR VGND sg13g2_decap_8
XFILLER_6_676 VPWR VGND sg13g2_decap_8
X_1320_ VPWR _0119_ state\[92\] VGND sg13g2_inv_1
XFILLER_1_392 VPWR VGND sg13g2_decap_8
XFILLER_37_503 VPWR VGND sg13g2_decap_4
XFILLER_49_396 VPWR VGND sg13g2_decap_8
XFILLER_17_260 VPWR VGND sg13g2_decap_8
XFILLER_32_263 VPWR VGND sg13g2_decap_8
XFILLER_33_720 VPWR VGND sg13g2_decap_8
XFILLER_33_764 VPWR VGND sg13g2_fill_2
X_1449_ net187 VPWR _0877_ VGND daisychain\[6\] net30 sg13g2_o21ai_1
X_1518_ VGND VPWR net99 daisychain\[19\] _0932_ net50 sg13g2_a21oi_1
X_2567_ net455 VGND VPWR _0383_ state\[127\] clknet_leaf_0_clk sg13g2_dfrbpq_1
X_2498_ net353 VGND VPWR _0314_ state\[58\] clknet_leaf_13_clk sg13g2_dfrbpq_1
XFILLER_15_219 VPWR VGND sg13g2_decap_8
XFILLER_11_469 VPWR VGND sg13g2_decap_8
XFILLER_23_263 VPWR VGND sg13g2_fill_2
XFILLER_23_55 VPWR VGND sg13g2_decap_8
XFILLER_7_418 VPWR VGND sg13g2_decap_8
X_2467__222 VPWR VGND net221 sg13g2_tiehi
XFILLER_2_112 VPWR VGND sg13g2_decap_8
XFILLER_3_602 VPWR VGND sg13g2_decap_8
XFILLER_3_657 VPWR VGND sg13g2_fill_1
XFILLER_3_668 VPWR VGND sg13g2_decap_8
XFILLER_2_189 VPWR VGND sg13g2_decap_8
XFILLER_46_322 VPWR VGND sg13g2_decap_8
XFILLER_48_63 VPWR VGND sg13g2_decap_8
X_2521__452 VPWR VGND net451 sg13g2_tiehi
XFILLER_30_701 VPWR VGND sg13g2_fill_2
XFILLER_46_399 VPWR VGND sg13g2_decap_8
XFILLER_9_13 VPWR VGND sg13g2_fill_1
X_2370__213 VPWR VGND net212 sg13g2_tiehi
XFILLER_10_491 VPWR VGND sg13g2_decap_8
XFILLER_14_296 VPWR VGND sg13g2_decap_8
XFILLER_30_789 VPWR VGND sg13g2_decap_4
X_2446__306 VPWR VGND net305 sg13g2_tiehi
XFILLER_2_690 VPWR VGND sg13g2_decap_8
XFILLER_6_484 VPWR VGND sg13g2_fill_1
X_1303_ VPWR _0010_ state\[109\] VGND sg13g2_inv_1
X_2421_ net366 VGND VPWR _0237_ daisychain\[109\] clknet_leaf_4_clk sg13g2_dfrbpq_1
X_2352_ net248 VGND VPWR _0168_ daisychain\[40\] clknet_leaf_14_clk sg13g2_dfrbpq_1
X_2283_ VGND VPWR _0659_ _0831_ _0369_ net69 sg13g2_a21oi_1
XFILLER_37_322 VPWR VGND sg13g2_decap_8
XFILLER_38_801 VPWR VGND sg13g2_fill_1
XFILLER_49_193 VPWR VGND sg13g2_decap_8
X_2533__356 VPWR VGND net355 sg13g2_tiehi
XFILLER_20_222 VPWR VGND sg13g2_decap_8
XFILLER_33_561 VPWR VGND sg13g2_fill_2
XFILLER_20_299 VPWR VGND sg13g2_decap_8
X_2347__259 VPWR VGND net258 sg13g2_tiehi
X_1998_ VGND VPWR net96 daisychain\[115\] _0672_ net46 sg13g2_a21oi_1
XFILLER_18_33 VPWR VGND sg13g2_decap_8
XFILLER_28_300 VPWR VGND sg13g2_fill_1
XFILLER_28_333 VPWR VGND sg13g2_fill_2
XFILLER_47_119 VPWR VGND sg13g2_decap_8
XFILLER_34_21 VPWR VGND sg13g2_decap_8
XFILLER_34_54 VPWR VGND sg13g2_decap_8
XFILLER_43_336 VPWR VGND sg13g2_decap_8
XFILLER_11_255 VPWR VGND sg13g2_decap_8
XFILLER_7_215 VPWR VGND sg13g2_decap_8
XFILLER_1_0 VPWR VGND sg13g2_decap_8
XFILLER_3_421 VPWR VGND sg13g2_decap_8
XFILLER_3_498 VPWR VGND sg13g2_decap_8
XFILLER_19_355 VPWR VGND sg13g2_fill_2
XFILLER_38_119 VPWR VGND sg13g2_decap_8
XFILLER_30_531 VPWR VGND sg13g2_fill_1
XFILLER_46_196 VPWR VGND sg13g2_decap_8
X_1921_ state\[101\] daisychain\[101\] net143 _0610_ VPWR VGND sg13g2_mux2_1
X_1852_ _0555_ net173 _0554_ VPWR VGND sg13g2_nand2_1
XFILLER_30_597 VPWR VGND sg13g2_fill_1
X_1783_ VGND VPWR net128 daisychain\[72\] _0500_ net62 sg13g2_a21oi_1
XFILLER_29_108 VPWR VGND sg13g2_decap_8
XFILLER_34_0 VPWR VGND sg13g2_decap_8
X_2404_ net400 VGND VPWR _0220_ daisychain\[92\] clknet_leaf_9_clk sg13g2_dfrbpq_1
X_2335_ net282 VGND VPWR _0151_ daisychain\[23\] clknet_leaf_15_clk sg13g2_dfrbpq_1
X_2266_ _0823_ net107 state\[105\] VPWR VGND sg13g2_nand2_1
XFILLER_1_91 VPWR VGND sg13g2_decap_8
XFILLER_37_196 VPWR VGND sg13g2_decap_8
X_2197_ VGND VPWR _0487_ _0788_ _0326_ net87 sg13g2_a21oi_1
XFILLER_5_708 VPWR VGND sg13g2_fill_2
XFILLER_0_413 VPWR VGND sg13g2_decap_8
XFILLER_20_89 VPWR VGND sg13g2_decap_8
X_2399__411 VPWR VGND net410 sg13g2_tiehi
XFILLER_16_314 VPWR VGND sg13g2_decap_8
XFILLER_28_130 VPWR VGND sg13g2_decap_8
XFILLER_29_87 VPWR VGND sg13g2_decap_8
XFILLER_48_406 VPWR VGND sg13g2_decap_8
XFILLER_12_564 VPWR VGND sg13g2_decap_8
XFILLER_16_347 VPWR VGND sg13g2_decap_8
XFILLER_16_369 VPWR VGND sg13g2_decap_4
XFILLER_43_133 VPWR VGND sg13g2_decap_8
XFILLER_44_678 VPWR VGND sg13g2_decap_4
XFILLER_44_689 VPWR VGND sg13g2_fill_1
XFILLER_45_42 VPWR VGND sg13g2_decap_8
XFILLER_8_557 VPWR VGND sg13g2_fill_1
XFILLER_39_406 VPWR VGND sg13g2_decap_8
XFILLER_3_295 VPWR VGND sg13g2_decap_8
XFILLER_4_774 VPWR VGND sg13g2_fill_2
X_2120_ _0750_ net106 state\[32\] VPWR VGND sg13g2_nand2_1
XFILLER_19_141 VPWR VGND sg13g2_decap_8
XFILLER_34_166 VPWR VGND sg13g2_decap_8
XFILLER_47_483 VPWR VGND sg13g2_decap_8
X_2051_ state\[127\] daisychain\[127\] net135 _0714_ VPWR VGND sg13g2_mux2_1
X_1904_ net190 VPWR _0597_ VGND daisychain\[97\] net33 sg13g2_o21ai_1
X_1835_ VGND VPWR _0539_ _0540_ _0211_ _0541_ sg13g2_a21oi_1
X_1766_ state\[70\] daisychain\[70\] net154 _0486_ VPWR VGND sg13g2_mux2_1
X_1697_ _0431_ net171 _0430_ VPWR VGND sg13g2_nand2_1
X_2498__354 VPWR VGND net353 sg13g2_tiehi
X_2318_ net316 VGND VPWR _0134_ daisychain\[6\] clknet_leaf_10_clk sg13g2_dfrbpq_1
X_2249_ VGND VPWR _0591_ _0814_ _0352_ net78 sg13g2_a21oi_1
XFILLER_13_328 VPWR VGND sg13g2_decap_8
XFILLER_15_34 VPWR VGND sg13g2_fill_1
XFILLER_25_144 VPWR VGND sg13g2_decap_8
XFILLER_40_147 VPWR VGND sg13g2_decap_8
XFILLER_31_11 VPWR VGND sg13g2_decap_8
XFILLER_31_88 VPWR VGND sg13g2_decap_8
XFILLER_5_527 VPWR VGND sg13g2_fill_2
XFILLER_0_210 VPWR VGND sg13g2_decap_8
XFILLER_0_287 VPWR VGND sg13g2_decap_8
XFILLER_48_203 VPWR VGND sg13g2_decap_8
XFILLER_49_759 VPWR VGND sg13g2_decap_8
X_2557__440 VPWR VGND net439 sg13g2_tiehi
Xoutput9 net9 uio_out[2] VPWR VGND sg13g2_buf_1
Xoutput22 net22 uo_out[7] VPWR VGND sg13g2_buf_1
Xoutput11 net11 uio_out[4] VPWR VGND sg13g2_buf_1
X_2477__438 VPWR VGND net437 sg13g2_tiehi
XFILLER_16_111 VPWR VGND sg13g2_decap_8
XFILLER_44_420 VPWR VGND sg13g2_decap_8
XFILLER_12_350 VPWR VGND sg13g2_decap_8
XFILLER_16_188 VPWR VGND sg13g2_decap_8
XFILLER_31_158 VPWR VGND sg13g2_decap_8
XFILLER_32_648 VPWR VGND sg13g2_fill_2
XFILLER_9_822 VPWR VGND sg13g2_fill_1
XFILLER_4_593 VPWR VGND sg13g2_decap_4
XFILLER_8_376 VPWR VGND sg13g2_decap_8
X_1482_ _0903_ net159 _0902_ VPWR VGND sg13g2_nand2_1
X_1551_ state\[27\] daisychain\[27\] net138 _0958_ VPWR VGND sg13g2_mux2_1
X_1620_ VGND VPWR _1011_ _1012_ _0168_ _1013_ sg13g2_a21oi_1
XFILLER_39_203 VPWR VGND sg13g2_decap_8
X_2103_ VGND VPWR _0943_ _0741_ _0279_ net73 sg13g2_a21oi_1
XFILLER_22_158 VPWR VGND sg13g2_decap_8
XFILLER_35_442 VPWR VGND sg13g2_decap_4
XFILLER_47_280 VPWR VGND sg13g2_decap_8
X_2034_ net179 VPWR _0701_ VGND daisychain\[123\] net25 sg13g2_o21ai_1
X_1818_ VGND VPWR net127 daisychain\[79\] _0528_ net63 sg13g2_a21oi_1
X_1749_ net198 VPWR _0473_ VGND daisychain\[66\] net41 sg13g2_o21ai_1
XFILLER_14_604 VPWR VGND sg13g2_fill_2
XFILLER_26_11 VPWR VGND sg13g2_decap_8
XFILLER_38_280 VPWR VGND sg13g2_decap_8
XFILLER_45_217 VPWR VGND sg13g2_decap_8
XFILLER_13_125 VPWR VGND sg13g2_decap_8
XFILLER_26_99 VPWR VGND sg13g2_decap_8
XFILLER_42_21 VPWR VGND sg13g2_decap_8
XFILLER_42_98 VPWR VGND sg13g2_decap_8
XFILLER_5_335 VPWR VGND sg13g2_decap_8
XFILLER_36_217 VPWR VGND sg13g2_decap_8
XFILLER_49_501 VPWR VGND sg13g2_decap_8
XFILLER_49_578 VPWR VGND sg13g2_decap_4
XFILLER_44_294 VPWR VGND sg13g2_decap_8
XFILLER_45_795 VPWR VGND sg13g2_fill_1
XFILLER_20_618 VPWR VGND sg13g2_fill_1
XFILLER_8_173 VPWR VGND sg13g2_decap_8
XFILLER_9_685 VPWR VGND sg13g2_fill_1
X_1465_ VGND VPWR _0887_ _0888_ _0137_ _0889_ sg13g2_a21oi_1
X_1534_ net185 VPWR _0945_ VGND daisychain\[23\] net28 sg13g2_o21ai_1
Xfanout108 net109 net108 VPWR VGND sg13g2_buf_1
Xfanout119 net121 net119 VPWR VGND sg13g2_buf_1
X_2460__250 VPWR VGND net249 sg13g2_tiehi
X_1603_ VGND VPWR net103 daisychain\[36\] _1000_ net57 sg13g2_a21oi_1
X_1396_ VPWR _0035_ state\[16\] VGND sg13g2_inv_1
X_2536__332 VPWR VGND net331 sg13g2_tiehi