* NGSPICE file created from heichips25_pudding.ext - technology: ihp-sg13g2

* Black-box entry subcircuit for sg13g2_decap_8 abstract view
.subckt sg13g2_decap_8 VDD VSS
.ends

* Black-box entry subcircuit for sg13g2_dfrbpq_1 abstract view
.subckt sg13g2_dfrbpq_1 RESET_B VSS VDD D Q CLK
.ends

* Black-box entry subcircuit for sg13g2_fill_1 abstract view
.subckt sg13g2_fill_1 VDD VSS
.ends

* Black-box entry subcircuit for sg13g2_a21oi_1 abstract view
.subckt sg13g2_a21oi_1 VSS VDD A1 A2 Y B1
.ends

* Black-box entry subcircuit for sg13g2_inv_1 abstract view
.subckt sg13g2_inv_1 VDD Y A VSS
.ends

* Black-box entry subcircuit for sg13g2_buf_1 abstract view
.subckt sg13g2_buf_1 A X VDD VSS
.ends

* Black-box entry subcircuit for sg13g2_a21o_1 abstract view
.subckt sg13g2_a21o_1 A2 A1 B1 X VDD VSS
.ends

* Black-box entry subcircuit for sg13g2_o21ai_1 abstract view
.subckt sg13g2_o21ai_1 B1 VDD Y VSS A1 A2
.ends

* Black-box entry subcircuit for sg13g2_a22oi_1 abstract view
.subckt sg13g2_a22oi_1 Y B1 B2 A2 A1 VDD VSS
.ends

* Black-box entry subcircuit for sg13g2_decap_4 abstract view
.subckt sg13g2_decap_4 VDD VSS
.ends

* Black-box entry subcircuit for sg13g2_fill_2 abstract view
.subckt sg13g2_fill_2 VDD VSS
.ends

* Black-box entry subcircuit for sg13g2_antennanp abstract view
.subckt sg13g2_antennanp VDD VSS A
.ends

* Black-box entry subcircuit for sg13g2_tiehi abstract view
.subckt sg13g2_tiehi VDD VSS L_HI
.ends

* Black-box entry subcircuit for sg13g2_buf_8 abstract view
.subckt sg13g2_buf_8 A X VDD VSS
.ends

* Black-box entry subcircuit for sg13g2_inv_4 abstract view
.subckt sg13g2_inv_4 A Y VDD VSS
.ends

* Black-box entry subcircuit for sg13g2_inv_2 abstract view
.subckt sg13g2_inv_2 Y A VDD VSS
.ends

* Black-box entry subcircuit for sg13g2_buf_16 abstract view
.subckt sg13g2_buf_16 X A VDD VSS
.ends

* Black-box entry subcircuit for sg13g2_inv_8 abstract view
.subckt sg13g2_inv_8 Y A VDD VSS
.ends

* Black-box entry subcircuit for analog_wires abstract view
.subckt analog_wires Iout VcascP[1] VcascP[0] VbiasP[1] VbiasP[0] VDDA[1] VDDA[0]
+ i_in i_out
.ends

* Black-box entry subcircuit for sg13g2_nor2_1 abstract view
.subckt sg13g2_nor2_1 A B Y VDD VSS
.ends

* Black-box entry subcircuit for dac128module abstract view
.subckt dac128module VbiasP[1] Iout VbiasP[0] VcascP[1] VcascP[0] ON[64] ONB[64] ON[65]
+ ONB[65] ON[66] ONB[66] ON[67] ONB[67] ON[68] ONB[68] ON[69] ONB[69] ON[70] ONB[70]
+ ON[71] ONB[71] ON[72] ONB[72] EN[2] ENB[2] ON[73] ONB[73] ON[74] ONB[74] ON[75]
+ ONB[75] ON[76] ONB[76] ON[77] ONB[77] ON[78] ONB[78] ON[79] ONB[79] ON[80] ONB[80]
+ ON[81] ONB[81] ON[82] ONB[82] ON[83] ONB[83] ON[84] ONB[84] ON[85] ONB[85] ON[86]
+ ONB[86] ON[87] ONB[87] ON[88] ONB[88] ON[89] ONB[89] ON[90] ONB[90] ON[91] ONB[91]
+ ON[92] ONB[92] ON[93] ONB[93] ON[94] ONB[94] ON[95] ONB[95] ON[96] ONB[96] ON[97]
+ ONB[97] ON[98] ONB[98] ON[99] ONB[99] ON[100] ONB[100] ON[101] ONB[101] ON[102]
+ ONB[102] ON[103] ONB[103] ON[104] ONB[104] ON[105] ONB[105] ON[106] ONB[106] ON[107]
+ ONB[107] ON[108] ONB[108] ON[109] ONB[109] ON[110] ONB[110] ON[111] ONB[111] ON[112]
+ ONB[112] ON[113] ONB[113] ON[114] ONB[114] ON[115] ONB[115] ON[116] ONB[116] ON[117]
+ ONB[117] ON[118] ONB[118] ON[119] ONB[119] ON[120] ONB[120] ON[121] ONB[121] ON[122]
+ ONB[122] EN[3] ENB[3] ON[123] ONB[123] ON[124] ONB[124] ON[125] ONB[125] ON[126]
+ ONB[126] ON[127] ONB[127] ON[0] ONB[0] ON[1] ONB[1] ON[2] ONB[2] ON[3] ONB[3] ON[4]
+ ONB[4] ON[5] ONB[5] ON[6] EN[0] ENB[0] ONB[6] ON[7] ONB[7] ON[8] ONB[8] ON[9] ONB[9]
+ ON[10] ONB[10] ON[11] ONB[11] ON[12] ONB[12] ON[13] ONB[13] ON[14] ONB[14] ON[15]
+ ONB[15] ON[16] ONB[16] ON[17] ONB[17] ON[18] ONB[18] ON[19] ONB[19] ON[20] ONB[20]
+ ON[21] ONB[21] ON[22] ONB[22] ON[23] ONB[23] ON[24] ONB[24] ON[25] ONB[25] ON[26]
+ ONB[26] ON[27] ONB[27] ON[28] ONB[28] ON[29] ONB[29] ON[30] ONB[30] ON[31] ONB[31]
+ ON[33] ONB[33] ON[32] ONB[32] ON[34] ONB[34] ON[35] ONB[35] ON[36] ONB[36] ON[37]
+ ONB[37] ON[38] ONB[38] ON[39] ONB[39] ON[40] ONB[40] ON[41] ONB[41] ON[42] ONB[42]
+ ON[43] ONB[43] ON[44] ONB[44] ON[45] ONB[45] ON[46] ONB[46] ON[47] ONB[47] ON[48]
+ ONB[48] ON[49] ONB[49] ON[50] ONB[50] ON[51] ONB[51] ON[52] ONB[52] ON[53] ONB[53]
+ ON[54] ONB[54] ON[55] ONB[55] ON[56] ONB[56] ON[57] ONB[57] ON[58] ONB[58] ON[59]
+ ONB[59] ON[60] ONB[60] ON[61] ONB[61] ON[62] ONB[62] ON[63] ONB[63] EN[1] ENB[1]
+ VSS VDD
.ends

.subckt heichips25_pudding VGND VPWR clk ena i_in i_out rst_n ui_in[0] ui_in[1] ui_in[2]
+ ui_in[3] ui_in[4] ui_in[5] ui_in[6] ui_in[7] uio_in[0] uio_in[1] uio_in[2] uio_in[3]
+ uio_in[4] uio_in[5] uio_in[6] uio_in[7] uio_oe[0] uio_oe[1] uio_oe[2] uio_oe[3]
+ uio_oe[4] uio_oe[5] uio_oe[6] uio_oe[7] uio_out[0] uio_out[1] uio_out[2] uio_out[3]
+ uio_out[4] uio_out[5] uio_out[6] uio_out[7] uo_out[0] uo_out[1] uo_out[2] uo_out[3]
+ uo_out[4] uo_out[5] uo_out[6] uo_out[7]
XFILLER_39_266 VPWR VGND sg13g2_decap_8
X_2037_ net198 VGND VPWR _0369_ state\[113\] clknet_leaf_2_clk sg13g2_dfrbpq_1
XFILLER_22_166 VPWR VGND sg13g2_decap_8
XFILLER_7_7 VPWR VGND sg13g2_decap_8
XFILLER_46_726 VPWR VGND sg13g2_decap_8
XFILLER_14_612 VPWR VGND sg13g2_fill_1
XFILLER_26_483 VPWR VGND sg13g2_fill_1
XFILLER_26_494 VPWR VGND sg13g2_decap_8
XFILLER_41_420 VPWR VGND sg13g2_decap_8
XFILLER_45_203 VPWR VGND sg13g2_decap_8
XFILLER_13_144 VPWR VGND sg13g2_decap_8
XFILLER_14_689 VPWR VGND sg13g2_fill_1
XFILLER_41_497 VPWR VGND sg13g2_decap_8
XFILLER_42_84 VPWR VGND sg13g2_decap_8
XFILLER_9_137 VPWR VGND sg13g2_decap_8
XFILLER_1_560 VPWR VGND sg13g2_decap_8
XFILLER_3_56 VPWR VGND sg13g2_decap_8
XFILLER_5_354 VPWR VGND sg13g2_decap_8
XFILLER_36_203 VPWR VGND sg13g2_decap_8
XFILLER_49_564 VPWR VGND sg13g2_decap_8
X_1270_ VGND VPWR net72 daisychain\[27\] _0397_ net34 sg13g2_a21oi_1
XFILLER_44_280 VPWR VGND sg13g2_decap_8
X_1606_ VGND VPWR net75 daisychain\[111\] _0649_ net37 sg13g2_a21oi_1
X_0985_ VPWR _0103_ state\[78\] VGND sg13g2_inv_1
Xfanout105 net106 net105 VPWR VGND sg13g2_buf_1
Xfanout116 net135 net116 VPWR VGND sg13g2_buf_1
Xfanout127 net134 net127 VPWR VGND sg13g2_buf_1
Xfanout138 net141 net138 VPWR VGND sg13g2_buf_1
Xfanout149 net157 net149 VPWR VGND sg13g2_buf_1
X_1537_ _0796_ net109 _0596_ _0597_ VPWR VGND sg13g2_a21o_1
X_1468_ net175 VPWR _0545_ VGND net128 state\[78\] sg13g2_o21ai_1
X_1399_ _0188_ _0492_ _0493_ net52 _0761_ VPWR VGND sg13g2_a22oi_1
XFILLER_27_214 VPWR VGND sg13g2_decap_8
XFILLER_35_280 VPWR VGND sg13g2_decap_8
XFILLER_42_217 VPWR VGND sg13g2_decap_8
XFILLER_10_158 VPWR VGND sg13g2_decap_8
XFILLER_11_615 VPWR VGND sg13g2_decap_4
XFILLER_12_76 VPWR VGND sg13g2_decap_8
XFILLER_2_368 VPWR VGND sg13g2_decap_8
XFILLER_5_4 VPWR VGND sg13g2_decap_8
XFILLER_18_214 VPWR VGND sg13g2_decap_8
XFILLER_37_84 VPWR VGND sg13g2_decap_8
XFILLER_46_567 VPWR VGND sg13g2_decap_8
XFILLER_26_291 VPWR VGND sg13g2_decap_8
XFILLER_33_228 VPWR VGND sg13g2_decap_8
XFILLER_34_729 VPWR VGND sg13g2_fill_2
XFILLER_41_294 VPWR VGND sg13g2_decap_8
XFILLER_5_151 VPWR VGND sg13g2_decap_8
XFILLER_6_663 VPWR VGND sg13g2_fill_2
X_1322_ VGND VPWR net79 daisychain\[40\] _0436_ net46 sg13g2_a21oi_1
X_1253_ _0725_ net102 _0897_ _0384_ VPWR VGND sg13g2_a21o_1
XFILLER_49_361 VPWR VGND sg13g2_decap_8
X_1184_ net139 VPWR _0846_ VGND net92 state\[7\] sg13g2_o21ai_1
X_0968_ VPWR _0085_ state\[61\] VGND sg13g2_inv_1
X_0899_ VPWR _0696_ net138 VGND sg13g2_inv_1
XFILLER_23_20 VPWR VGND sg13g2_decap_8
XFILLER_23_261 VPWR VGND sg13g2_decap_8
XFILLER_43_504 VPWR VGND sg13g2_fill_2
XFILLER_43_537 VPWR VGND sg13g2_fill_1
XFILLER_3_611 VPWR VGND sg13g2_decap_4
XFILLER_7_427 VPWR VGND sg13g2_decap_8
XFILLER_2_165 VPWR VGND sg13g2_decap_8
XFILLER_3_655 VPWR VGND sg13g2_decap_8
XFILLER_0_35 VPWR VGND sg13g2_decap_8
XFILLER_19_501 VPWR VGND sg13g2_fill_2
XFILLER_19_523 VPWR VGND sg13g2_decap_8
XFILLER_46_364 VPWR VGND sg13g2_decap_8
XFILLER_14_272 VPWR VGND sg13g2_decap_8
XFILLER_15_784 VPWR VGND sg13g2_decap_4
XFILLER_15_795 VPWR VGND sg13g2_fill_2
XFILLER_30_754 VPWR VGND sg13g2_decap_8
XFILLER_9_11 VPWR VGND sg13g2_decap_8
X_1940_ net189 VGND VPWR _0272_ state\[16\] clknet_leaf_16_clk sg13g2_dfrbpq_1
X_1871_ net220 VGND VPWR _0203_ daisychain\[75\] clknet_leaf_7_clk sg13g2_dfrbpq_1
XFILLER_9_88 VPWR VGND sg13g2_decap_8
X_1305_ _0738_ net115 _0422_ _0423_ VPWR VGND sg13g2_a21o_1
X_1236_ net147 VPWR _0885_ VGND net101 state\[20\] sg13g2_o21ai_1
XFILLER_12_209 VPWR VGND sg13g2_decap_8
XFILLER_37_364 VPWR VGND sg13g2_decap_8
X_1167_ _0130_ _0832_ _0833_ net38 _0703_ VPWR VGND sg13g2_a22oi_1
X_1098_ VPWR _0767_ daisychain\[66\] VGND sg13g2_inv_1
XFILLER_20_231 VPWR VGND sg13g2_decap_8
XFILLER_18_53 VPWR VGND sg13g2_decap_8
XFILLER_28_331 VPWR VGND sg13g2_decap_8
XFILLER_43_301 VPWR VGND sg13g2_decap_8
XFILLER_44_813 VPWR VGND sg13g2_decap_8
XFILLER_11_242 VPWR VGND sg13g2_decap_8
XFILLER_34_63 VPWR VGND sg13g2_decap_8
XFILLER_43_378 VPWR VGND sg13g2_decap_8
XFILLER_3_441 VPWR VGND sg13g2_decap_8
XFILLER_7_224 VPWR VGND sg13g2_decap_8
X_2070_ daisychain\[122\] net17 VPWR VGND sg13g2_buf_1
XFILLER_34_301 VPWR VGND sg13g2_decap_8
XFILLER_34_378 VPWR VGND sg13g2_decap_8
XFILLER_46_161 VPWR VGND sg13g2_decap_8
X_1021_ VPWR _0016_ state\[114\] VGND sg13g2_inv_1
X_1923_ net184 VGND VPWR _0255_ daisychain\[127\] clknet_leaf_1_clk sg13g2_dfrbpq_1
X_1854_ net209 VGND VPWR _0186_ daisychain\[58\] clknet_leaf_13_clk sg13g2_dfrbpq_1
X_1785_ _0663_ VPWR _0373_ VGND net140 _0019_ sg13g2_o21ai_1
XFILLER_29_139 VPWR VGND sg13g2_decap_8
XFILLER_37_161 VPWR VGND sg13g2_decap_8
X_1219_ _0143_ _0871_ _0872_ net31 _0716_ VPWR VGND sg13g2_a22oi_1
XFILLER_40_315 VPWR VGND sg13g2_decap_8
XFILLER_4_249 VPWR VGND sg13g2_decap_8
XFILLER_0_455 VPWR VGND sg13g2_decap_8
XFILLER_29_41 VPWR VGND sg13g2_decap_8
XFILLER_48_448 VPWR VGND sg13g2_decap_8
XFILLER_16_356 VPWR VGND sg13g2_decap_8
XFILLER_28_172 VPWR VGND sg13g2_decap_8
XFILLER_43_175 VPWR VGND sg13g2_decap_8
XFILLER_45_84 VPWR VGND sg13g2_decap_8
XFILLER_12_595 VPWR VGND sg13g2_decap_4
XANTENNA_5 VPWR VGND state\[56\] sg13g2_antennanp
XFILLER_6_67 VPWR VGND sg13g2_decap_8
X_1570_ VGND VPWR net77 daisychain\[102\] _0622_ net40 sg13g2_a21oi_1
XFILLER_20_4 VPWR VGND sg13g2_decap_4
XFILLER_39_448 VPWR VGND sg13g2_decap_8
XFILLER_34_175 VPWR VGND sg13g2_decap_8
X_1004_ VPWR _0124_ state\[97\] VGND sg13g2_inv_1
X_1906_ net197 VGND VPWR _0238_ daisychain\[110\] clknet_leaf_9_clk sg13g2_dfrbpq_1
X_1837_ net204 VGND VPWR _0169_ daisychain\[41\] clknet_leaf_14_clk sg13g2_dfrbpq_1
X_1768_ _0612_ VPWR _0356_ VGND net171 _0001_ sg13g2_o21ai_1
X_1699_ _0405_ VPWR _0287_ VGND net158 _0052_ sg13g2_o21ai_1
XFILLER_25_131 VPWR VGND sg13g2_decap_8
XFILLER_13_326 VPWR VGND sg13g2_decap_8
XFILLER_15_76 VPWR VGND sg13g2_decap_8
XFILLER_31_20 VPWR VGND sg13g2_decap_8
XFILLER_40_112 VPWR VGND sg13g2_decap_8
XFILLER_40_189 VPWR VGND sg13g2_decap_8
XFILLER_41_646 VPWR VGND sg13g2_fill_1
XFILLER_9_319 VPWR VGND sg13g2_decap_8
XFILLER_31_97 VPWR VGND sg13g2_decap_8
XFILLER_5_536 VPWR VGND sg13g2_fill_1
XFILLER_5_547 VPWR VGND sg13g2_fill_2
Xoutput7 net7 uio_out[0] VPWR VGND sg13g2_buf_1
Xoutput20 net20 uo_out[5] VPWR VGND sg13g2_buf_1
XFILLER_0_252 VPWR VGND sg13g2_decap_8
XFILLER_48_245 VPWR VGND sg13g2_decap_8
XFILLER_49_735 VPWR VGND sg13g2_decap_8
XFILLER_16_153 VPWR VGND sg13g2_decap_8
XFILLER_17_665 VPWR VGND sg13g2_fill_1
XFILLER_31_167 VPWR VGND sg13g2_decap_8
XFILLER_44_462 VPWR VGND sg13g2_decap_8
XFILLER_12_370 VPWR VGND sg13g2_decap_8
XFILLER_8_396 VPWR VGND sg13g2_decap_8
X_1622_ VGND VPWR net68 daisychain\[115\] _0661_ net27 sg13g2_a21oi_1
X_1553_ _0800_ net108 _0608_ _0609_ VPWR VGND sg13g2_a21o_1
X_1484_ net170 VPWR _0557_ VGND net127 state\[82\] sg13g2_o21ai_1
XFILLER_27_429 VPWR VGND sg13g2_fill_2
XFILLER_39_245 VPWR VGND sg13g2_decap_8
X_2036_ net196 VGND VPWR _0368_ state\[112\] clknet_leaf_2_clk sg13g2_dfrbpq_1
XFILLER_22_145 VPWR VGND sg13g2_decap_8
XFILLER_13_123 VPWR VGND sg13g2_decap_8
XFILLER_14_635 VPWR VGND sg13g2_decap_4
XFILLER_14_646 VPWR VGND sg13g2_fill_1
XFILLER_26_473 VPWR VGND sg13g2_decap_4
XFILLER_41_476 VPWR VGND sg13g2_decap_8
XFILLER_45_259 VPWR VGND sg13g2_decap_8
XFILLER_9_116 VPWR VGND sg13g2_decap_8
XFILLER_42_63 VPWR VGND sg13g2_decap_8
XFILLER_5_333 VPWR VGND sg13g2_decap_8
XFILLER_6_812 VPWR VGND sg13g2_decap_8
XFILLER_36_259 VPWR VGND sg13g2_decap_8
XFILLER_37_705 VPWR VGND sg13g2_fill_1
XFILLER_49_543 VPWR VGND sg13g2_decap_8
XFILLER_20_616 VPWR VGND sg13g2_fill_2
XFILLER_32_454 VPWR VGND sg13g2_fill_2
XFILLER_32_498 VPWR VGND sg13g2_decap_8
X_0984_ VPWR _0102_ state\[77\] VGND sg13g2_inv_1
XFILLER_8_193 VPWR VGND sg13g2_decap_8
X_1605_ _0813_ net104 _0647_ _0648_ VPWR VGND sg13g2_a21o_1
X_1536_ net154 VPWR _0596_ VGND net108 state\[95\] sg13g2_o21ai_1
XFILLER_9_672 VPWR VGND sg13g2_decap_4
Xfanout106 net111 net106 VPWR VGND sg13g2_buf_1
Xfanout117 net118 net117 VPWR VGND sg13g2_buf_1
Xfanout128 net134 net128 VPWR VGND sg13g2_buf_1
Xfanout139 net140 net139 VPWR VGND sg13g2_buf_1
X_1467_ _0205_ _0543_ _0544_ net61 _0778_ VPWR VGND sg13g2_a22oi_1
X_1398_ VGND VPWR net82 daisychain\[59\] _0493_ net52 sg13g2_a21oi_1
X_2019_ net202 VGND VPWR _0351_ state\[95\] clknet_leaf_4_clk sg13g2_dfrbpq_1
XFILLER_10_137 VPWR VGND sg13g2_decap_8
XFILLER_12_55 VPWR VGND sg13g2_decap_8
XFILLER_2_347 VPWR VGND sg13g2_decap_8
XFILLER_19_716 VPWR VGND sg13g2_fill_1
XFILLER_33_207 VPWR VGND sg13g2_decap_8
XFILLER_37_63 VPWR VGND sg13g2_decap_8
XFILLER_46_546 VPWR VGND sg13g2_decap_8
XFILLER_26_270 VPWR VGND sg13g2_decap_8
XFILLER_41_273 VPWR VGND sg13g2_decap_8
XFILLER_5_130 VPWR VGND sg13g2_decap_8
XFILLER_6_642 VPWR VGND sg13g2_decap_8
XFILLER_49_340 VPWR VGND sg13g2_decap_8
X_1321_ _0742_ net114 _0434_ _0435_ VPWR VGND sg13g2_a21o_1
X_1252_ net148 VPWR _0897_ VGND net102 state\[24\] sg13g2_o21ai_1
XFILLER_33_774 VPWR VGND sg13g2_fill_2
XFILLER_37_579 VPWR VGND sg13g2_fill_2
X_1183_ _0134_ _0844_ _0845_ net25 _0707_ VPWR VGND sg13g2_a22oi_1
XFILLER_20_424 VPWR VGND sg13g2_decap_8
XFILLER_32_284 VPWR VGND sg13g2_decap_8
X_0967_ VPWR _0084_ state\[60\] VGND sg13g2_inv_1
XFILLER_9_491 VPWR VGND sg13g2_fill_1
X_1519_ _0218_ _0582_ _0583_ net43 _0791_ VPWR VGND sg13g2_a22oi_1
X_0898_ VPWR _0695_ daisychain\[123\] VGND sg13g2_inv_1
XFILLER_11_424 VPWR VGND sg13g2_decap_8
XFILLER_11_435 VPWR VGND sg13g2_fill_2
XFILLER_23_240 VPWR VGND sg13g2_decap_8
XFILLER_7_406 VPWR VGND sg13g2_decap_8
XFILLER_3_623 VPWR VGND sg13g2_fill_1
XFILLER_2_144 VPWR VGND sg13g2_decap_8
XFILLER_48_84 VPWR VGND sg13g2_decap_8
XFILLER_0_14 VPWR VGND sg13g2_decap_8
XFILLER_46_343 VPWR VGND sg13g2_decap_8
XFILLER_14_251 VPWR VGND sg13g2_decap_8
X_1870_ net220 VGND VPWR _0202_ daisychain\[74\] clknet_leaf_6_clk sg13g2_dfrbpq_1
XFILLER_9_67 VPWR VGND sg13g2_decap_8
XFILLER_6_494 VPWR VGND sg13g2_decap_8
XFILLER_37_343 VPWR VGND sg13g2_decap_8
X_1304_ net161 VPWR _0422_ VGND net115 state\[37\] sg13g2_o21ai_1
X_1235_ _0147_ _0883_ _0884_ net34 _0720_ VPWR VGND sg13g2_a22oi_1
X_1166_ VGND VPWR net75 daisychain\[1\] _0833_ net38 sg13g2_a21oi_1
XFILLER_20_210 VPWR VGND sg13g2_decap_8
X_1097_ VPWR _0766_ daisychain\[65\] VGND sg13g2_inv_1
X_1999_ net221 VGND VPWR _0331_ state\[75\] clknet_leaf_6_clk sg13g2_dfrbpq_1
XFILLER_16_516 VPWR VGND sg13g2_fill_1
XFILLER_18_32 VPWR VGND sg13g2_decap_8
XFILLER_43_357 VPWR VGND sg13g2_decap_8
XFILLER_11_221 VPWR VGND sg13g2_decap_8
XFILLER_11_298 VPWR VGND sg13g2_decap_8
XFILLER_12_711 VPWR VGND sg13g2_fill_1
XFILLER_34_42 VPWR VGND sg13g2_decap_8
XFILLER_7_203 VPWR VGND sg13g2_decap_8
XFILLER_3_420 VPWR VGND sg13g2_decap_8
XFILLER_3_497 VPWR VGND sg13g2_decap_8
XFILLER_46_140 VPWR VGND sg13g2_decap_8
X_1020_ VPWR _0015_ state\[113\] VGND sg13g2_inv_1
XFILLER_15_593 VPWR VGND sg13g2_fill_1
XFILLER_19_398 VPWR VGND sg13g2_decap_8
XFILLER_34_357 VPWR VGND sg13g2_decap_8
X_1922_ net183 VGND VPWR _0254_ daisychain\[126\] clknet_leaf_1_clk sg13g2_dfrbpq_1
X_1853_ net209 VGND VPWR _0185_ daisychain\[57\] clknet_leaf_13_clk sg13g2_dfrbpq_1
X_1784_ _0660_ VPWR _0372_ VGND net151 _0018_ sg13g2_o21ai_1
XFILLER_29_118 VPWR VGND sg13g2_decap_8
XFILLER_41_0 VPWR VGND sg13g2_decap_8
XFILLER_6_291 VPWR VGND sg13g2_decap_8
XFILLER_37_140 VPWR VGND sg13g2_decap_8
XFILLER_38_663 VPWR VGND sg13g2_decap_4
X_1218_ VGND VPWR net74 daisychain\[14\] _0872_ net31 sg13g2_a21oi_1
X_1149_ VPWR _0818_ daisychain\[117\] VGND sg13g2_inv_1
XFILLER_20_55 VPWR VGND sg13g2_decap_4
XFILLER_4_228 VPWR VGND sg13g2_decap_8
XFILLER_0_434 VPWR VGND sg13g2_decap_8
XFILLER_29_20 VPWR VGND sg13g2_decap_8
XFILLER_29_97 VPWR VGND sg13g2_decap_8
XFILLER_48_427 VPWR VGND sg13g2_decap_8
XFILLER_16_335 VPWR VGND sg13g2_decap_8
XFILLER_28_151 VPWR VGND sg13g2_decap_8
XFILLER_31_349 VPWR VGND sg13g2_decap_8
XFILLER_32_806 VPWR VGND sg13g2_fill_1
XFILLER_32_817 VPWR VGND sg13g2_decap_4
XFILLER_43_154 VPWR VGND sg13g2_decap_8
XFILLER_45_63 VPWR VGND sg13g2_decap_8
XANTENNA_6 VPWR VGND state\[83\] sg13g2_antennanp
XFILLER_12_563 VPWR VGND sg13g2_fill_1
XFILLER_6_46 VPWR VGND sg13g2_decap_8
XFILLER_8_512 VPWR VGND sg13g2_fill_2
XFILLER_3_294 VPWR VGND sg13g2_decap_8
XFILLER_13_4 VPWR VGND sg13g2_decap_8
XFILLER_19_195 VPWR VGND sg13g2_decap_8
XFILLER_35_622 VPWR VGND sg13g2_fill_2
XFILLER_39_427 VPWR VGND sg13g2_decap_8
X_1003_ VPWR _0123_ state\[96\] VGND sg13g2_inv_1
XFILLER_34_154 VPWR VGND sg13g2_decap_8
X_1905_ net199 VGND VPWR _0237_ daisychain\[109\] clknet_leaf_3_clk sg13g2_dfrbpq_1
XFILLER_30_393 VPWR VGND sg13g2_fill_2
X_1836_ net205 VGND VPWR _0168_ daisychain\[40\] clknet_leaf_14_clk sg13g2_dfrbpq_1
X_1767_ _0609_ VPWR _0355_ VGND net156 _0126_ sg13g2_o21ai_1
X_1698_ _0402_ VPWR _0286_ VGND net158 _0051_ sg13g2_o21ai_1
XFILLER_13_305 VPWR VGND sg13g2_decap_8
XFILLER_15_55 VPWR VGND sg13g2_decap_8
XFILLER_25_187 VPWR VGND sg13g2_decap_8
XFILLER_38_460 VPWR VGND sg13g2_decap_4
XFILLER_41_625 VPWR VGND sg13g2_fill_1
XFILLER_31_76 VPWR VGND sg13g2_decap_8
XFILLER_40_168 VPWR VGND sg13g2_decap_8
XFILLER_5_515 VPWR VGND sg13g2_decap_8
XFILLER_0_231 VPWR VGND sg13g2_decap_8
Xoutput8 net8 uio_out[1] VPWR VGND sg13g2_buf_1
Xoutput21 net21 uo_out[6] VPWR VGND sg13g2_buf_1
Xoutput10 net10 uio_out[3] VPWR VGND sg13g2_buf_1
XFILLER_16_132 VPWR VGND sg13g2_decap_8
XFILLER_29_471 VPWR VGND sg13g2_fill_1
XFILLER_44_441 VPWR VGND sg13g2_decap_8
XFILLER_48_224 VPWR VGND sg13g2_decap_8
XFILLER_31_146 VPWR VGND sg13g2_decap_8
XFILLER_8_375 VPWR VGND sg13g2_decap_8
X_1621_ _0817_ net94 _0659_ _0660_ VPWR VGND sg13g2_a21o_1
X_1552_ net155 VPWR _0608_ VGND net110 state\[99\] sg13g2_o21ai_1
XFILLER_39_224 VPWR VGND sg13g2_decap_8
X_1483_ _0209_ _0555_ _0556_ net56 _0782_ VPWR VGND sg13g2_a22oi_1
X_2035_ net197 VGND VPWR _0367_ state\[111\] clknet_leaf_2_clk sg13g2_dfrbpq_1
XFILLER_10_319 VPWR VGND sg13g2_decap_8
XFILLER_31_680 VPWR VGND sg13g2_decap_8
XFILLER_2_529 VPWR VGND sg13g2_decap_8
X_1819_ net193 VGND VPWR _0151_ daisychain\[23\] clknet_leaf_10_clk sg13g2_dfrbpq_1
XFILLER_45_238 VPWR VGND sg13g2_decap_8
XFILLER_13_102 VPWR VGND sg13g2_decap_8
XFILLER_13_179 VPWR VGND sg13g2_decap_8
XFILLER_26_452 VPWR VGND sg13g2_decap_8
XFILLER_41_455 VPWR VGND sg13g2_decap_8
XFILLER_42_42 VPWR VGND sg13g2_decap_8
XFILLER_5_312 VPWR VGND sg13g2_decap_8
XFILLER_5_389 VPWR VGND sg13g2_decap_8
XFILLER_1_595 VPWR VGND sg13g2_decap_4
XFILLER_3_25 VPWR VGND sg13g2_decap_8
XFILLER_49_522 VPWR VGND sg13g2_decap_8
XFILLER_17_485 VPWR VGND sg13g2_decap_8
XFILLER_36_238 VPWR VGND sg13g2_decap_8
XFILLER_45_750 VPWR VGND sg13g2_fill_2
XFILLER_32_466 VPWR VGND sg13g2_fill_2
XFILLER_8_172 VPWR VGND sg13g2_decap_8
X_0983_ VPWR _0101_ state\[76\] VGND sg13g2_inv_1
XFILLER_9_640 VPWR VGND sg13g2_fill_1
Xfanout107 net110 net107 VPWR VGND sg13g2_buf_1
Xfanout118 net122 net118 VPWR VGND sg13g2_buf_1
Xfanout129 net134 net129 VPWR VGND sg13g2_buf_1
X_1604_ net150 VPWR _0647_ VGND net104 state\[112\] sg13g2_o21ai_1
X_1535_ _0222_ _0594_ _0595_ net41 _0795_ VPWR VGND sg13g2_a22oi_1
XFILLER_27_249 VPWR VGND sg13g2_decap_8
X_1466_ VGND VPWR net87 daisychain\[76\] _0544_ net61 sg13g2_a21oi_1
X_1397_ _0761_ net122 _0491_ _0492_ VPWR VGND sg13g2_a21o_1
XFILLER_10_116 VPWR VGND sg13g2_decap_8
XFILLER_36_750 VPWR VGND sg13g2_fill_1
X_2018_ net201 VGND VPWR _0350_ state\[94\] clknet_leaf_4_clk sg13g2_dfrbpq_1
XFILLER_12_34 VPWR VGND sg13g2_decap_8
XFILLER_3_816 VPWR VGND sg13g2_decap_8
XFILLER_6_109 VPWR VGND sg13g2_decap_8
XFILLER_2_326 VPWR VGND sg13g2_decap_8
XFILLER_18_249 VPWR VGND sg13g2_decap_8
XFILLER_37_42 VPWR VGND sg13g2_decap_8
XFILLER_46_525 VPWR VGND sg13g2_decap_8
XFILLER_41_252 VPWR VGND sg13g2_decap_8
XFILLER_42_775 VPWR VGND sg13g2_decap_8
XFILLER_45_7 VPWR VGND sg13g2_decap_8
XFILLER_5_186 VPWR VGND sg13g2_decap_8
X_1320_ net159 VPWR _0434_ VGND net114 state\[41\] sg13g2_o21ai_1
XFILLER_1_392 VPWR VGND sg13g2_decap_8
XFILLER_49_396 VPWR VGND sg13g2_decap_8
X_1251_ _0151_ _0895_ _0896_ net35 _0724_ VPWR VGND sg13g2_a22oi_1
X_1182_ VGND VPWR net71 daisychain\[5\] _0845_ net30 sg13g2_a21oi_1
XFILLER_17_293 VPWR VGND sg13g2_decap_8
XFILLER_18_783 VPWR VGND sg13g2_fill_1
XFILLER_24_219 VPWR VGND sg13g2_decap_8
XFILLER_32_263 VPWR VGND sg13g2_decap_8
XFILLER_20_469 VPWR VGND sg13g2_fill_2
X_0966_ VPWR _0082_ state\[59\] VGND sg13g2_inv_1
X_1518_ VGND VPWR net76 daisychain\[89\] _0583_ net41 sg13g2_a21oi_1
X_1449_ _0774_ net130 _0530_ _0531_ VPWR VGND sg13g2_a21o_1
XFILLER_43_506 VPWR VGND sg13g2_fill_1
XFILLER_11_403 VPWR VGND sg13g2_decap_8
XFILLER_11_469 VPWR VGND sg13g2_fill_2
XFILLER_23_296 VPWR VGND sg13g2_decap_8
XFILLER_23_66 VPWR VGND sg13g2_fill_2
XFILLER_2_123 VPWR VGND sg13g2_decap_8
XFILLER_19_503 VPWR VGND sg13g2_fill_1
XFILLER_46_322 VPWR VGND sg13g2_decap_8
XFILLER_48_63 VPWR VGND sg13g2_decap_8
XFILLER_14_230 VPWR VGND sg13g2_decap_8
XFILLER_19_569 VPWR VGND sg13g2_fill_1
XFILLER_30_712 VPWR VGND sg13g2_fill_1
XFILLER_42_561 VPWR VGND sg13g2_fill_1
XFILLER_46_399 VPWR VGND sg13g2_decap_8
XFILLER_30_734 VPWR VGND sg13g2_fill_1
XFILLER_30_778 VPWR VGND sg13g2_fill_2
XFILLER_42_594 VPWR VGND sg13g2_decap_8
XFILLER_9_46 VPWR VGND sg13g2_decap_8
XFILLER_6_473 VPWR VGND sg13g2_decap_8
X_1303_ _0164_ _0420_ _0421_ net48 _0737_ VPWR VGND sg13g2_a22oi_1
XFILLER_37_322 VPWR VGND sg13g2_decap_8
XFILLER_37_399 VPWR VGND sg13g2_decap_8
XFILLER_49_193 VPWR VGND sg13g2_decap_8
X_1234_ VGND VPWR net72 daisychain\[18\] _0884_ net34 sg13g2_a21oi_1
X_1165_ _0703_ net101 _0831_ _0832_ VPWR VGND sg13g2_a21o_1
X_1096_ VPWR _0765_ daisychain\[64\] VGND sg13g2_inv_1
XFILLER_20_266 VPWR VGND sg13g2_decap_8
XFILLER_20_277 VPWR VGND sg13g2_fill_1
X_1998_ net221 VGND VPWR _0330_ state\[74\] clknet_leaf_6_clk sg13g2_dfrbpq_1
X_0949_ VPWR _0064_ state\[42\] VGND sg13g2_inv_1
XFILLER_18_11 VPWR VGND sg13g2_decap_8
XFILLER_47_119 VPWR VGND sg13g2_decap_8
XFILLER_18_88 VPWR VGND sg13g2_decap_8
XFILLER_28_344 VPWR VGND sg13g2_decap_8
XFILLER_34_21 VPWR VGND sg13g2_decap_8
XFILLER_43_336 VPWR VGND sg13g2_decap_8
XFILLER_11_200 VPWR VGND sg13g2_decap_8
XFILLER_11_277 VPWR VGND sg13g2_decap_8
XFILLER_34_98 VPWR VGND sg13g2_decap_8
XFILLER_7_259 VPWR VGND sg13g2_decap_8
XFILLER_1_0 VPWR VGND sg13g2_decap_8
XFILLER_3_476 VPWR VGND sg13g2_decap_8
XFILLER_15_8 VPWR VGND sg13g2_fill_1
XFILLER_38_119 VPWR VGND sg13g2_decap_8
XFILLER_30_553 VPWR VGND sg13g2_fill_1
XFILLER_34_336 VPWR VGND sg13g2_decap_8
XFILLER_46_196 VPWR VGND sg13g2_decap_8
X_1921_ net183 VGND VPWR _0253_ daisychain\[125\] clknet_leaf_1_clk sg13g2_dfrbpq_1
X_1852_ net211 VGND VPWR _0184_ daisychain\[56\] clknet_leaf_13_clk sg13g2_dfrbpq_1
XFILLER_30_575 VPWR VGND sg13g2_fill_1
XFILLER_6_270 VPWR VGND sg13g2_decap_8
X_1783_ _0657_ VPWR _0371_ VGND net150 _0017_ sg13g2_o21ai_1
XFILLER_34_0 VPWR VGND sg13g2_decap_8
XFILLER_1_91 VPWR VGND sg13g2_decap_8
XFILLER_25_325 VPWR VGND sg13g2_fill_1
XFILLER_37_196 VPWR VGND sg13g2_decap_8
XFILLER_38_642 VPWR VGND sg13g2_decap_8
X_1217_ _0716_ net97 _0870_ _0871_ VPWR VGND sg13g2_a21o_1
X_1148_ VPWR _0817_ daisychain\[116\] VGND sg13g2_inv_1
X_1079_ VPWR _0748_ daisychain\[47\] VGND sg13g2_inv_1
XFILLER_0_413 VPWR VGND sg13g2_decap_8
XFILLER_20_34 VPWR VGND sg13g2_decap_8
XFILLER_20_89 VPWR VGND sg13g2_decap_8
XFILLER_4_207 VPWR VGND sg13g2_decap_8
XFILLER_16_314 VPWR VGND sg13g2_decap_8
XFILLER_28_130 VPWR VGND sg13g2_decap_8
XFILLER_29_76 VPWR VGND sg13g2_decap_8
XFILLER_44_601 VPWR VGND sg13g2_fill_1
XFILLER_48_406 VPWR VGND sg13g2_decap_8
XFILLER_12_520 VPWR VGND sg13g2_fill_2
XFILLER_12_531 VPWR VGND sg13g2_fill_1
XFILLER_31_328 VPWR VGND sg13g2_decap_8
XFILLER_43_133 VPWR VGND sg13g2_decap_8
XFILLER_44_634 VPWR VGND sg13g2_decap_8
XFILLER_45_42 VPWR VGND sg13g2_decap_8
XFILLER_6_25 VPWR VGND sg13g2_decap_8
XFILLER_39_406 VPWR VGND sg13g2_decap_8
XFILLER_3_273 VPWR VGND sg13g2_decap_8
XFILLER_19_174 VPWR VGND sg13g2_decap_8
XFILLER_22_306 VPWR VGND sg13g2_decap_8
XFILLER_34_133 VPWR VGND sg13g2_decap_8
XFILLER_35_601 VPWR VGND sg13g2_decap_4
XFILLER_35_689 VPWR VGND sg13g2_decap_8
XFILLER_47_483 VPWR VGND sg13g2_decap_8
X_2051_ net184 VGND VPWR _0383_ state\[127\] clknet_leaf_1_clk sg13g2_dfrbpq_1
X_1002_ VPWR _0122_ state\[95\] VGND sg13g2_inv_1
XFILLER_15_391 VPWR VGND sg13g2_decap_8
XFILLER_30_361 VPWR VGND sg13g2_decap_8
X_1904_ net197 VGND VPWR _0236_ daisychain\[108\] clknet_leaf_3_clk sg13g2_dfrbpq_1
X_1835_ net204 VGND VPWR _0167_ daisychain\[39\] clknet_leaf_14_clk sg13g2_dfrbpq_1
X_1766_ _0606_ VPWR _0354_ VGND net154 _0125_ sg13g2_o21ai_1
X_1697_ _0399_ VPWR _0285_ VGND net149 _0049_ sg13g2_o21ai_1
XFILLER_15_34 VPWR VGND sg13g2_decap_8
XFILLER_25_166 VPWR VGND sg13g2_decap_8
XFILLER_40_147 VPWR VGND sg13g2_decap_8
XFILLER_31_11 VPWR VGND sg13g2_fill_1
XFILLER_31_55 VPWR VGND sg13g2_decap_8
XFILLER_0_210 VPWR VGND sg13g2_decap_8
XFILLER_0_287 VPWR VGND sg13g2_decap_8
XFILLER_48_203 VPWR VGND sg13g2_decap_8
Xoutput9 net9 uio_out[2] VPWR VGND sg13g2_buf_1
Xoutput22 net22 uo_out[7] VPWR VGND sg13g2_buf_1
Xoutput11 net11 uio_out[4] VPWR VGND sg13g2_buf_1
XFILLER_16_111 VPWR VGND sg13g2_decap_8
XFILLER_17_656 VPWR VGND sg13g2_decap_8
XFILLER_44_420 VPWR VGND sg13g2_decap_8
XFILLER_16_188 VPWR VGND sg13g2_decap_8
XFILLER_31_125 VPWR VGND sg13g2_decap_8
XFILLER_44_497 VPWR VGND sg13g2_decap_8
XFILLER_8_354 VPWR VGND sg13g2_decap_8
X_1620_ net150 VPWR _0659_ VGND net94 state\[116\] sg13g2_o21ai_1
X_1551_ _0226_ _0606_ _0607_ net42 _0799_ VPWR VGND sg13g2_a22oi_1
X_1482_ VGND VPWR net85 daisychain\[80\] _0556_ net56 sg13g2_a21oi_1
XFILLER_39_203 VPWR VGND sg13g2_decap_8
XFILLER_35_475 VPWR VGND sg13g2_decap_8
XFILLER_47_280 VPWR VGND sg13g2_decap_8
X_2034_ net199 VGND VPWR _0366_ state\[110\] clknet_leaf_9_clk sg13g2_dfrbpq_1
X_1818_ net193 VGND VPWR _0150_ daisychain\[22\] clknet_leaf_10_clk sg13g2_dfrbpq_1
XFILLER_2_508 VPWR VGND sg13g2_decap_8
X_1749_ _0555_ VPWR _0337_ VGND net174 _0107_ sg13g2_o21ai_1
XFILLER_26_11 VPWR VGND sg13g2_decap_8
XFILLER_26_442 VPWR VGND sg13g2_decap_4
XFILLER_38_280 VPWR VGND sg13g2_decap_8
XFILLER_45_217 VPWR VGND sg13g2_decap_8
XFILLER_10_821 VPWR VGND sg13g2_fill_2
XFILLER_13_158 VPWR VGND sg13g2_decap_8
XFILLER_21_180 VPWR VGND sg13g2_decap_8
XFILLER_41_434 VPWR VGND sg13g2_decap_8
XFILLER_42_21 VPWR VGND sg13g2_decap_8
XFILLER_42_98 VPWR VGND sg13g2_decap_8
XFILLER_5_368 VPWR VGND sg13g2_decap_8
XFILLER_1_574 VPWR VGND sg13g2_decap_8
XFILLER_36_217 VPWR VGND sg13g2_decap_8
XFILLER_49_501 VPWR VGND sg13g2_decap_8
XFILLER_49_578 VPWR VGND sg13g2_decap_8
XFILLER_17_442 VPWR VGND sg13g2_decap_8
XFILLER_32_423 VPWR VGND sg13g2_decap_4
XFILLER_44_294 VPWR VGND sg13g2_decap_8
XFILLER_45_784 VPWR VGND sg13g2_decap_8
XFILLER_20_618 VPWR VGND sg13g2_fill_1
XFILLER_32_478 VPWR VGND sg13g2_decap_8
XFILLER_32_489 VPWR VGND sg13g2_fill_2
XFILLER_8_151 VPWR VGND sg13g2_decap_8
X_0982_ VPWR _0100_ state\[75\] VGND sg13g2_inv_1
Xfanout108 net109 net108 VPWR VGND sg13g2_buf_1
Xfanout119 net122 net119 VPWR VGND sg13g2_buf_1
X_1603_ _0239_ _0645_ _0646_ net39 _0812_ VPWR VGND sg13g2_a22oi_1
X_1534_ VGND VPWR net76 daisychain\[93\] _0595_ net41 sg13g2_a21oi_1
X_1465_ _0778_ net128 _0542_ _0543_ VPWR VGND sg13g2_a21o_1
XFILLER_27_228 VPWR VGND sg13g2_decap_8
XFILLER_36_740 VPWR VGND sg13g2_fill_1
X_2017_ net216 VGND VPWR _0349_ state\[93\] clknet_leaf_4_clk sg13g2_dfrbpq_1
X_1396_ net165 VPWR _0491_ VGND net118 state\[60\] sg13g2_o21ai_1
XFILLER_35_294 VPWR VGND sg13g2_decap_8
XFILLER_12_13 VPWR VGND sg13g2_decap_8
XFILLER_2_305 VPWR VGND sg13g2_decap_8
XFILLER_37_21 VPWR VGND sg13g2_decap_8
XFILLER_46_504 VPWR VGND sg13g2_decap_8
XFILLER_14_412 VPWR VGND sg13g2_decap_8
XFILLER_18_228 VPWR VGND sg13g2_decap_8
XFILLER_37_98 VPWR VGND sg13g2_decap_8
XFILLER_41_231 VPWR VGND sg13g2_decap_8
XFILLER_42_754 VPWR VGND sg13g2_decap_8
XFILLER_1_371 VPWR VGND sg13g2_decap_8
XFILLER_38_7 VPWR VGND sg13g2_decap_8
XFILLER_5_165 VPWR VGND sg13g2_decap_8
XFILLER_6_688 VPWR VGND sg13g2_decap_8
XFILLER_18_762 VPWR VGND sg13g2_decap_8
XFILLER_49_375 VPWR VGND sg13g2_decap_8
X_1250_ VGND VPWR net73 daisychain\[22\] _0896_ net35 sg13g2_a21oi_1
X_1181_ _0707_ net96 _0843_ _0844_ VPWR VGND sg13g2_a21o_1
XFILLER_17_272 VPWR VGND sg13g2_decap_8
XFILLER_32_242 VPWR VGND sg13g2_decap_8
XFILLER_33_776 VPWR VGND sg13g2_fill_1
X_0965_ VPWR _0081_ state\[58\] VGND sg13g2_inv_1
X_1517_ _0791_ net126 _0581_ _0582_ VPWR VGND sg13g2_a21o_1
X_1448_ net177 VPWR _0530_ VGND net130 state\[73\] sg13g2_o21ai_1
XFILLER_15_209 VPWR VGND sg13g2_decap_8
XFILLER_36_570 VPWR VGND sg13g2_decap_8
X_1379_ _0183_ _0477_ _0478_ net50 _0756_ VPWR VGND sg13g2_a22oi_1
XFILLER_23_275 VPWR VGND sg13g2_decap_8
XFILLER_2_102 VPWR VGND sg13g2_decap_8
XFILLER_2_179 VPWR VGND sg13g2_decap_8
XFILLER_3_4 VPWR VGND sg13g2_decap_8
XFILLER_0_49 VPWR VGND sg13g2_decap_8
XFILLER_19_537 VPWR VGND sg13g2_fill_1
XFILLER_34_507 VPWR VGND sg13g2_decap_8
XFILLER_46_301 VPWR VGND sg13g2_decap_8
XFILLER_48_42 VPWR VGND sg13g2_decap_8
XFILLER_14_286 VPWR VGND sg13g2_decap_8
XFILLER_30_746 VPWR VGND sg13g2_fill_1
XFILLER_42_573 VPWR VGND sg13g2_fill_2
XFILLER_46_378 VPWR VGND sg13g2_decap_8
XFILLER_9_25 VPWR VGND sg13g2_decap_8
XFILLER_30_768 VPWR VGND sg13g2_decap_4
XFILLER_6_452 VPWR VGND sg13g2_decap_8