*SPEF "ieee 1481-1999"
*DESIGN "heichips25_pudding"
*DATE "23:25:08 Thursday March 12, 2026"
*VENDOR "The OpenROAD Project"
*PROGRAM "OpenROAD"
*VERSION "dfc4f595dfb2e1c346492ff1f0274abb28725acf"
*DESIGN_FLOW "NAME_SCOPE LOCAL" "PIN_CAP NONE"
*DIVIDER /
*DELIMITER :
*BUS_DELIMITER []
*T_UNIT 1 NS
*C_UNIT 1 PF
*R_UNIT 1 OHM
*L_UNIT 1 HENRY

*NAME_MAP
*3 clk
*4 ena
*5 i_in
*6 i_out
*7 rst_n
*8 ui_in[0]
*9 ui_in[1]
*10 ui_in[2]
*11 ui_in[3]
*12 ui_in[4]
*13 ui_in[5]
*14 ui_in[6]
*15 ui_in[7]
*16 uio_in[0]
*17 uio_in[1]
*18 uio_in[2]
*19 uio_in[3]
*20 uio_in[4]
*21 uio_in[5]
*22 uio_in[6]
*23 uio_in[7]
*24 net
*25 net120
*26 net121
*27 net122
*28 net123
*29 net124
*30 net125
*31 net126
*32 uio_out[0]
*33 uio_out[1]
*34 uio_out[2]
*35 uio_out[3]
*36 uio_out[4]
*37 uio_out[5]
*38 uio_out[6]
*39 uio_out[7]
*40 uo_out[0]
*41 uo_out[1]
*42 uo_out[2]
*43 uo_out[3]
*44 uo_out[4]
*45 uo_out[5]
*46 uo_out[6]
*47 uo_out[7]
*48 _0000_
*49 _0001_
*50 _0002_
*51 _0003_
*52 _0004_
*53 _0005_
*54 _0006_
*55 _0007_
*56 _0008_
*57 _0009_
*58 _0010_
*59 _0011_
*60 _0012_
*61 _0013_
*62 _0014_
*63 _0015_
*64 _0016_
*65 _0017_
*66 _0018_
*67 _0019_
*68 _0020_
*69 _0021_
*70 _0022_
*71 _0023_
*72 _0024_
*73 _0025_
*74 _0026_
*75 _0027_
*76 _0028_
*77 _0029_
*78 _0030_
*79 _0031_
*80 _0032_
*81 _0033_
*82 _0034_
*83 _0035_
*84 _0036_
*85 _0037_
*86 _0038_
*87 _0039_
*88 _0040_
*89 _0041_
*90 _0042_
*91 _0043_
*92 _0044_
*93 _0045_
*94 _0046_
*95 _0047_
*96 _0048_
*97 _0049_
*98 _0050_
*99 _0051_
*100 _0052_
*101 _0053_
*102 _0054_
*103 _0055_
*104 _0056_
*105 _0057_
*106 _0058_
*107 _0059_
*108 _0060_
*109 _0061_
*110 _0062_
*111 _0063_
*112 _0064_
*113 _0065_
*114 _0066_
*115 _0067_
*116 _0068_
*117 _0069_
*118 _0070_
*119 _0071_
*120 _0072_
*121 _0073_
*122 _0074_
*123 _0075_
*124 _0076_
*125 _0077_
*126 _0078_
*127 _0079_
*128 _0080_
*129 _0081_
*130 _0082_
*131 _0083_
*132 _0084_
*133 _0085_
*134 _0086_
*135 _0087_
*136 _0088_
*137 _0089_
*138 _0090_
*139 _0091_
*140 _0092_
*141 _0093_
*142 _0094_
*143 _0095_
*144 _0096_
*145 _0097_
*146 _0098_
*147 _0099_
*148 _0100_
*149 _0101_
*150 _0102_
*151 _0103_
*152 _0104_
*153 _0105_
*154 _0106_
*155 _0107_
*156 _0108_
*157 _0109_
*158 _0110_
*159 _0111_
*160 _0112_
*161 _0113_
*162 _0114_
*163 _0115_
*164 _0116_
*165 _0117_
*166 _0118_
*167 _0119_
*168 _0120_
*169 _0121_
*170 _0122_
*171 _0123_
*172 _0124_
*173 _0125_
*174 _0126_
*175 _0127_
*176 _0128_
*177 _0129_
*178 _0130_
*179 _0131_
*180 _0132_
*181 _0133_
*182 _0134_
*183 _0135_
*184 _0136_
*185 _0137_
*186 _0138_
*187 _0139_
*188 _0140_
*189 _0141_
*190 _0142_
*191 _0143_
*192 _0144_
*193 _0145_
*194 _0146_
*195 _0147_
*196 _0148_
*197 _0149_
*198 _0150_
*199 _0151_
*200 _0152_
*201 _0153_
*202 _0154_
*203 _0155_
*204 _0156_
*205 _0157_
*206 _0158_
*207 _0159_
*208 _0160_
*209 _0161_
*210 _0162_
*211 _0163_
*212 _0164_
*213 _0165_
*214 _0166_
*215 _0167_
*216 _0168_
*217 _0169_
*218 _0170_
*219 _0171_
*220 _0172_
*221 _0173_
*222 _0174_
*223 _0175_
*224 _0176_
*225 _0177_
*226 _0178_
*227 _0179_
*228 _0180_
*229 _0181_
*230 _0182_
*231 _0183_
*232 _0184_
*233 _0185_
*234 _0186_
*235 _0187_
*236 _0188_
*237 _0189_
*238 _0190_
*239 _0191_
*240 _0192_
*241 _0193_
*242 _0194_
*243 _0195_
*244 _0196_
*245 _0197_
*246 _0198_
*247 _0199_
*248 _0200_
*249 _0201_
*250 _0202_
*251 _0203_
*252 _0204_
*253 _0205_
*254 _0206_
*255 _0207_
*256 _0208_
*257 _0209_
*258 _0210_
*259 _0211_
*260 _0212_
*261 _0213_
*262 _0214_
*263 _0215_
*264 _0216_
*265 _0217_
*266 _0218_
*267 _0219_
*268 _0220_
*269 _0221_
*270 _0222_
*271 _0223_
*272 _0224_
*273 _0225_
*274 _0226_
*275 _0227_
*276 _0228_
*277 _0229_
*278 _0230_
*279 _0231_
*280 _0232_
*281 _0233_
*282 _0234_
*283 _0235_
*284 _0236_
*285 _0237_
*286 _0238_
*287 _0239_
*288 _0240_
*289 _0241_
*290 _0242_
*291 _0243_
*292 _0244_
*293 _0245_
*294 _0246_
*295 _0247_
*296 _0248_
*297 _0249_
*298 _0250_
*299 _0251_
*300 _0252_
*301 _0253_
*302 _0254_
*303 _0255_
*304 _0256_
*305 _0257_
*306 _0258_
*307 _0259_
*308 _0260_
*309 _0261_
*310 _0262_
*311 _0263_
*312 _0264_
*313 _0265_
*314 _0266_
*315 _0267_
*316 _0268_
*317 _0269_
*318 _0270_
*319 _0271_
*320 _0272_
*321 _0273_
*322 _0274_
*323 _0275_
*324 _0276_
*325 _0277_
*326 _0278_
*327 _0279_
*328 _0280_
*329 _0281_
*330 _0282_
*331 _0283_
*332 _0284_
*333 _0285_
*334 _0286_
*335 _0287_
*336 _0288_
*337 _0289_
*338 _0290_
*339 _0291_
*340 _0292_
*341 _0293_
*342 _0294_
*343 _0295_
*344 _0296_
*345 _0297_
*346 _0298_
*347 _0299_
*348 _0300_
*349 _0301_
*350 _0302_
*351 _0303_
*352 _0304_
*353 _0305_
*354 _0306_
*355 _0307_
*356 _0308_
*357 _0309_
*358 _0310_
*359 _0311_
*360 _0312_
*361 _0313_
*362 _0314_
*363 _0315_
*364 _0316_
*365 _0317_
*366 _0318_
*367 _0319_
*368 _0320_
*369 _0321_
*370 _0322_
*371 _0323_
*372 _0324_
*373 _0325_
*374 _0326_
*375 _0327_
*376 _0328_
*377 _0329_
*378 _0330_
*379 _0331_
*380 _0332_
*381 _0333_
*382 _0334_
*383 _0335_
*384 _0336_
*385 _0337_
*386 _0338_
*387 _0339_
*388 _0340_
*389 _0341_
*390 _0342_
*391 _0343_
*392 _0344_
*393 _0345_
*394 _0346_
*395 _0347_
*396 _0348_
*397 _0349_
*398 _0350_
*399 _0351_
*400 _0352_
*401 _0353_
*402 _0354_
*403 _0355_
*404 _0356_
*405 _0357_
*406 _0358_
*407 _0359_
*408 _0360_
*409 _0361_
*410 _0362_
*411 _0363_
*412 _0364_
*413 _0365_
*414 _0366_
*415 _0367_
*416 _0368_
*417 _0369_
*418 _0370_
*419 _0371_
*420 _0372_
*421 _0373_
*422 _0374_
*423 _0375_
*424 _0376_
*425 _0377_
*426 _0378_
*427 _0379_
*428 _0380_
*429 _0381_
*430 _0382_
*431 _0383_
*432 _0384_
*433 _0385_
*434 _0386_
*435 _0387_
*436 _0388_
*437 _0389_
*438 _0390_
*439 _0391_
*440 _0392_
*441 _0393_
*442 _0394_
*443 _0395_
*444 _0396_
*445 _0397_
*446 _0398_
*447 _0399_
*448 _0400_
*449 _0401_
*450 _0402_
*451 _0403_
*452 _0404_
*453 _0405_
*454 _0406_
*455 _0407_
*456 _0408_
*457 _0409_
*458 _0410_
*459 _0411_
*460 _0412_
*461 _0413_
*462 _0414_
*463 _0415_
*464 _0416_
*465 _0417_
*466 _0418_
*467 _0419_
*468 _0420_
*469 _0421_
*470 _0422_
*471 _0423_
*472 _0424_
*473 _0425_
*474 _0426_
*475 _0427_
*476 _0428_
*477 _0429_
*478 _0430_
*479 _0431_
*480 _0432_
*481 _0433_
*482 _0434_
*483 _0435_
*484 _0436_
*485 _0437_
*486 _0438_
*487 _0439_
*488 _0440_
*489 _0441_
*490 _0442_
*491 _0443_
*492 _0444_
*493 _0445_
*494 _0446_
*495 _0447_
*496 _0448_
*497 _0449_
*498 _0450_
*499 _0451_
*500 bias\[0\]
*501 bias\[1\]
*502 bias\[2\]
*503 bias\[3\]
*504 clknet_0_clk
*505 clknet_4_0_0_clk
*506 clknet_4_10_0_clk
*507 clknet_4_11_0_clk
*508 clknet_4_12_0_clk
*509 clknet_4_13_0_clk
*510 clknet_4_14_0_clk
*511 clknet_4_15_0_clk
*512 clknet_4_1_0_clk
*513 clknet_4_2_0_clk
*514 clknet_4_3_0_clk
*515 clknet_4_4_0_clk
*516 clknet_4_5_0_clk
*517 clknet_4_6_0_clk
*518 clknet_4_7_0_clk
*519 clknet_4_8_0_clk
*520 clknet_4_9_0_clk
*521 clknet_5_0__leaf_clk
*522 clknet_5_10__leaf_clk
*523 clknet_5_11__leaf_clk
*524 clknet_5_12__leaf_clk
*525 clknet_5_13__leaf_clk
*526 clknet_5_14__leaf_clk
*527 clknet_5_15__leaf_clk
*528 clknet_5_16__leaf_clk
*529 clknet_5_17__leaf_clk
*530 clknet_5_18__leaf_clk
*531 clknet_5_19__leaf_clk
*532 clknet_5_1__leaf_clk
*533 clknet_5_20__leaf_clk
*534 clknet_5_21__leaf_clk
*535 clknet_5_22__leaf_clk
*536 clknet_5_23__leaf_clk
*537 clknet_5_24__leaf_clk
*538 clknet_5_25__leaf_clk
*539 clknet_5_26__leaf_clk
*540 clknet_5_27__leaf_clk
*541 clknet_5_28__leaf_clk
*542 clknet_5_29__leaf_clk
*543 clknet_5_2__leaf_clk
*544 clknet_5_30__leaf_clk
*545 clknet_5_31__leaf_clk
*546 clknet_5_3__leaf_clk
*547 clknet_5_4__leaf_clk
*548 clknet_5_5__leaf_clk
*549 clknet_5_6__leaf_clk
*550 clknet_5_7__leaf_clk
*551 clknet_5_8__leaf_clk
*552 clknet_5_9__leaf_clk
*553 dacout\[0\]
*554 dacout\[1\]
*555 daisychain\[0\]
*556 daisychain\[10\]
*557 daisychain\[11\]
*558 daisychain\[12\]
*559 daisychain\[13\]
*560 daisychain\[14\]
*561 daisychain\[15\]
*562 daisychain\[16\]
*563 daisychain\[17\]
*564 daisychain\[18\]
*565 daisychain\[19\]
*566 daisychain\[1\]
*567 daisychain\[20\]
*568 daisychain\[21\]
*569 daisychain\[22\]
*570 daisychain\[23\]
*571 daisychain\[24\]
*572 daisychain\[25\]
*573 daisychain\[26\]
*574 daisychain\[27\]
*575 daisychain\[28\]
*576 daisychain\[29\]
*577 daisychain\[2\]
*578 daisychain\[30\]
*579 daisychain\[31\]
*580 daisychain\[32\]
*581 daisychain\[33\]
*582 daisychain\[34\]
*583 daisychain\[35\]
*584 daisychain\[36\]
*585 daisychain\[37\]
*586 daisychain\[38\]
*587 daisychain\[39\]
*588 daisychain\[3\]
*589 daisychain\[40\]
*590 daisychain\[41\]
*591 daisychain\[42\]
*592 daisychain\[43\]
*593 daisychain\[44\]
*594 daisychain\[45\]
*595 daisychain\[46\]
*596 daisychain\[47\]
*597 daisychain\[48\]
*598 daisychain\[49\]
*599 daisychain\[4\]
*600 daisychain\[50\]
*601 daisychain\[51\]
*602 daisychain\[52\]
*603 daisychain\[53\]
*604 daisychain\[54\]
*605 daisychain\[55\]
*606 daisychain\[56\]
*607 daisychain\[57\]
*608 daisychain\[58\]
*609 daisychain\[59\]
*610 daisychain\[5\]
*611 daisychain\[60\]
*612 daisychain\[61\]
*613 daisychain\[62\]
*614 daisychain\[63\]
*615 daisychain\[6\]
*616 daisychain\[7\]
*617 daisychain\[8\]
*618 daisychain\[9\]
*619 digitalen0\.g\[0\]\.u\.OUTN
*620 digitalen0\.g\[0\]\.u\.OUTP
*621 digitalen0\.g\[1\]\.u\.OUTN
*622 digitalen0\.g\[1\]\.u\.OUTP
*623 digitalen0\.g\[2\]\.u\.OUTN
*624 digitalen0\.g\[2\]\.u\.OUTP
*625 digitalen0\.g\[3\]\.u\.OUTN
*626 digitalen0\.g\[3\]\.u\.OUTP
*627 digitalen1\.g\[0\]\.u\.OUTN
*628 digitalen1\.g\[0\]\.u\.OUTP
*629 digitalen1\.g\[1\]\.u\.OUTN
*630 digitalen1\.g\[1\]\.u\.OUTP
*631 digitalen1\.g\[2\]\.u\.OUTN
*632 digitalen1\.g\[2\]\.u\.OUTP
*633 digitalen1\.g\[3\]\.u\.OUTN
*634 digitalen1\.g\[3\]\.u\.OUTP
*635 iref\[0\]
*636 iref\[1\]
*637 iref\[2\]
*638 iref\[3\]
*639 net1
*640 net10
*641 net100
*642 net101
*643 net102
*644 net103
*645 net104
*646 net105
*647 net106
*648 net107
*649 net108
*650 net109
*651 net11
*652 net110
*653 net111
*654 net112
*655 net113
*656 net114
*657 net115
*658 net116
*659 net117
*660 net118
*661 net119
*662 net12
*663 net13
*664 net14
*665 net15
*666 net16
*667 net17
*668 net18
*669 net19
*670 net2
*671 net20
*672 net21
*673 net22
*674 net23
*675 net24
*676 net25
*677 net26
*678 net27
*679 net28
*680 net29
*681 net3
*682 net30
*683 net31
*684 net32
*685 net33
*686 net34
*687 net35
*688 net36
*689 net37
*690 net38
*691 net39
*692 net4
*693 net40
*694 net41
*695 net42
*696 net43
*697 net44
*698 net45
*699 net46
*700 net47
*701 net48
*702 net49
*703 net5
*704 net50
*705 net51
*706 net52
*707 net53
*708 net54
*709 net55
*710 net56
*711 net57
*712 net58
*713 net59
*714 net6
*715 net60
*716 net61
*717 net62
*718 net63
*719 net64
*720 net65
*721 net66
*722 net67
*723 net68
*724 net69
*725 net7
*726 net70
*727 net71
*728 net72
*729 net73
*730 net74
*731 net75
*732 net76
*733 net77
*734 net78
*735 net79
*736 net8
*737 net80
*738 net81
*739 net82
*740 net83
*741 net84
*742 net85
*743 net86
*744 net87
*745 net88
*746 net89
*747 net9
*748 net90
*749 net91
*750 net92
*751 net93
*752 net94
*753 net95
*754 net96
*755 net97
*756 net98
*757 net99
*758 state\[0\]
*759 state\[10\]
*760 state\[11\]
*761 state\[12\]
*762 state\[13\]
*763 state\[14\]
*764 state\[15\]
*765 state\[16\]
*766 state\[17\]
*767 state\[18\]
*768 state\[19\]
*769 state\[1\]
*770 state\[20\]
*771 state\[21\]
*772 state\[22\]
*773 state\[23\]
*774 state\[24\]
*775 state\[25\]
*776 state\[26\]
*777 state\[27\]
*778 state\[28\]
*779 state\[29\]
*780 state\[2\]
*781 state\[30\]
*782 state\[31\]
*783 state\[32\]
*784 state\[33\]
*785 state\[34\]
*786 state\[35\]
*787 state\[36\]
*788 state\[37\]
*789 state\[38\]
*790 state\[39\]
*791 state\[3\]
*792 state\[40\]
*793 state\[41\]
*794 state\[42\]
*795 state\[43\]
*796 state\[44\]
*797 state\[45\]
*798 state\[46\]
*799 state\[47\]
*800 state\[48\]
*801 state\[49\]
*802 state\[4\]
*803 state\[50\]
*804 state\[51\]
*805 state\[52\]
*806 state\[53\]
*807 state\[54\]
*808 state\[55\]
*809 state\[56\]
*810 state\[57\]
*811 state\[58\]
*812 state\[59\]
*813 state\[5\]
*814 state\[60\]
*815 state\[61\]
*816 state\[62\]
*817 state\[63\]
*818 state\[6\]
*819 state\[7\]
*820 state\[8\]
*821 state\[9\]
*822 vdda\[0\]
*823 vdda\[1\]
*824 vdda\[2\]
*825 vdda\[3\]
*826 ANTENNA_1
*827 ANTENNA_2
*828 ANTENNA_3
*829 FILLER_0_0
*830 FILLER_0_105
*831 FILLER_0_112
*832 FILLER_0_119
*833 FILLER_0_126
*834 FILLER_0_133
*835 FILLER_0_14
*836 FILLER_0_140
*837 FILLER_0_147
*838 FILLER_0_154
*839 FILLER_0_161
*840 FILLER_0_168
*841 FILLER_0_175
*842 FILLER_0_182
*843 FILLER_0_189
*844 FILLER_0_196
*845 FILLER_0_203
*846 FILLER_0_21
*847 FILLER_0_210
*848 FILLER_0_217
*849 FILLER_0_224
*850 FILLER_0_231
*851 FILLER_0_238
*852 FILLER_0_245
*853 FILLER_0_252
*854 FILLER_0_259
*855 FILLER_0_266
*856 FILLER_0_273
*857 FILLER_0_28
*858 FILLER_0_280
*859 FILLER_0_287
*860 FILLER_0_294
*861 FILLER_0_301
*862 FILLER_0_308
*863 FILLER_0_315
*864 FILLER_0_322
*865 FILLER_0_329
*866 FILLER_0_336
*867 FILLER_0_343
*868 FILLER_0_35
*869 FILLER_0_350
*870 FILLER_0_357
*871 FILLER_0_364
*872 FILLER_0_371
*873 FILLER_0_378
*874 FILLER_0_385
*875 FILLER_0_392
*876 FILLER_0_399
*877 FILLER_0_406
*878 FILLER_0_413
*879 FILLER_0_42
*880 FILLER_0_420
*881 FILLER_0_427
*882 FILLER_0_434
*883 FILLER_0_441
*884 FILLER_0_448
*885 FILLER_0_455
*886 FILLER_0_462
*887 FILLER_0_469
*888 FILLER_0_476
*889 FILLER_0_483
*890 FILLER_0_49
*891 FILLER_0_490
*892 FILLER_0_497
*893 FILLER_0_504
*894 FILLER_0_511
*895 FILLER_0_518
*896 FILLER_0_525
*897 FILLER_0_532
*898 FILLER_0_539
*899 FILLER_0_546
*900 FILLER_0_553
*901 FILLER_0_56
*902 FILLER_0_560
*903 FILLER_0_567
*904 FILLER_0_574
*905 FILLER_0_581
*906 FILLER_0_588
*907 FILLER_0_592
*908 FILLER_0_600
*909 FILLER_0_607
*910 FILLER_0_612
*911 FILLER_0_624
*912 FILLER_0_63
*913 FILLER_0_639
*914 FILLER_0_643
*915 FILLER_0_650
*916 FILLER_0_652
*917 FILLER_0_656
*918 FILLER_0_663
*919 FILLER_0_670
*920 FILLER_0_677
*921 FILLER_0_684
*922 FILLER_0_686
*923 FILLER_0_690
*924 FILLER_0_697
*925 FILLER_0_7
*926 FILLER_0_70
*927 FILLER_0_704
*928 FILLER_0_711
*929 FILLER_0_713
*930 FILLER_0_717
*931 FILLER_0_726
*932 FILLER_0_733
*933 FILLER_0_740
*934 FILLER_0_742
*935 FILLER_0_746
*936 FILLER_0_753
*937 FILLER_0_760
*938 FILLER_0_767
*939 FILLER_0_77
*940 FILLER_0_774
*941 FILLER_0_786
*942 FILLER_0_798
*943 FILLER_0_804
*944 FILLER_0_811
*945 FILLER_0_818
*946 FILLER_0_822
*947 FILLER_0_84
*948 FILLER_0_91
*949 FILLER_0_98
*950 FILLER_10_104
*951 FILLER_10_111
*952 FILLER_10_118
*953 FILLER_10_125
*954 FILLER_10_13
*955 FILLER_10_132
*956 FILLER_10_139
*957 FILLER_10_146
*958 FILLER_10_153
*959 FILLER_10_160
*960 FILLER_10_167
*961 FILLER_10_174
*962 FILLER_10_181
*963 FILLER_10_188
*964 FILLER_10_195
*965 FILLER_10_20
*966 FILLER_10_202
*967 FILLER_10_209
*968 FILLER_10_216
*969 FILLER_10_223
*970 FILLER_10_230
*971 FILLER_10_237
*972 FILLER_10_244
*973 FILLER_10_251
*974 FILLER_10_258
*975 FILLER_10_265
*976 FILLER_10_27
*977 FILLER_10_272
*978 FILLER_10_279
*979 FILLER_10_286
*980 FILLER_10_293
*981 FILLER_10_300
*982 FILLER_10_307
*983 FILLER_10_314
*984 FILLER_10_321
*985 FILLER_10_328
*986 FILLER_10_335
*987 FILLER_10_34
*988 FILLER_10_342
*989 FILLER_10_349
*990 FILLER_10_356
*991 FILLER_10_363
*992 FILLER_10_370
*993 FILLER_10_377
*994 FILLER_10_384
*995 FILLER_10_391
*996 FILLER_10_398
*997 FILLER_10_4
*998 FILLER_10_405
*999 FILLER_10_41
*1000 FILLER_10_412
*1001 FILLER_10_419
*1002 FILLER_10_426
*1003 FILLER_10_433
*1004 FILLER_10_440
*1005 FILLER_10_447
*1006 FILLER_10_454
*1007 FILLER_10_461
*1008 FILLER_10_468
*1009 FILLER_10_475
*1010 FILLER_10_48
*1011 FILLER_10_482
*1012 FILLER_10_489
*1013 FILLER_10_496
*1014 FILLER_10_503
*1015 FILLER_10_510
*1016 FILLER_10_517
*1017 FILLER_10_524
*1018 FILLER_10_55
*1019 FILLER_10_553
*1020 FILLER_10_560
*1021 FILLER_10_567
*1022 FILLER_10_574
*1023 FILLER_10_583
*1024 FILLER_10_590
*1025 FILLER_10_597
*1026 FILLER_10_604
*1027 FILLER_10_611
*1028 FILLER_10_617
*1029 FILLER_10_62
*1030 FILLER_10_665
*1031 FILLER_10_669
*1032 FILLER_10_69
*1033 FILLER_10_697
*1034 FILLER_10_699
*1035 FILLER_10_730
*1036 FILLER_10_732
*1037 FILLER_10_736
*1038 FILLER_10_76
*1039 FILLER_10_8
*1040 FILLER_10_83
*1041 FILLER_10_90
*1042 FILLER_10_97
*1043 FILLER_11_102
*1044 FILLER_11_109
*1045 FILLER_11_11
*1046 FILLER_11_116
*1047 FILLER_11_123
*1048 FILLER_11_130
*1049 FILLER_11_137
*1050 FILLER_11_144
*1051 FILLER_11_151
*1052 FILLER_11_158
*1053 FILLER_11_165
*1054 FILLER_11_172
*1055 FILLER_11_179
*1056 FILLER_11_18
*1057 FILLER_11_186
*1058 FILLER_11_193
*1059 FILLER_11_200
*1060 FILLER_11_207
*1061 FILLER_11_214
*1062 FILLER_11_221
*1063 FILLER_11_228
*1064 FILLER_11_235
*1065 FILLER_11_242
*1066 FILLER_11_249
*1067 FILLER_11_25
*1068 FILLER_11_256
*1069 FILLER_11_263
*1070 FILLER_11_270
*1071 FILLER_11_277
*1072 FILLER_11_284
*1073 FILLER_11_291
*1074 FILLER_11_298
*1075 FILLER_11_305
*1076 FILLER_11_312
*1077 FILLER_11_319
*1078 FILLER_11_32
*1079 FILLER_11_326
*1080 FILLER_11_333
*1081 FILLER_11_340
*1082 FILLER_11_347
*1083 FILLER_11_354
*1084 FILLER_11_361
*1085 FILLER_11_368
*1086 FILLER_11_375
*1087 FILLER_11_382
*1088 FILLER_11_389
*1089 FILLER_11_39
*1090 FILLER_11_396
*1091 FILLER_11_4
*1092 FILLER_11_403
*1093 FILLER_11_410
*1094 FILLER_11_417
*1095 FILLER_11_424
*1096 FILLER_11_431
*1097 FILLER_11_438
*1098 FILLER_11_452
*1099 FILLER_11_459
*1100 FILLER_11_46
*1101 FILLER_11_466
*1102 FILLER_11_473
*1103 FILLER_11_477
*1104 FILLER_11_491
*1105 FILLER_11_498
*1106 FILLER_11_505
*1107 FILLER_11_512
*1108 FILLER_11_519
*1109 FILLER_11_526
*1110 FILLER_11_53
*1111 FILLER_11_533
*1112 FILLER_11_540
*1113 FILLER_11_547
*1114 FILLER_11_554
*1115 FILLER_11_561
*1116 FILLER_11_568
*1117 FILLER_11_575
*1118 FILLER_11_583
*1119 FILLER_11_590
*1120 FILLER_11_597
*1121 FILLER_11_60
*1122 FILLER_11_604
*1123 FILLER_11_608
*1124 FILLER_11_617
*1125 FILLER_11_631
*1126 FILLER_11_640
*1127 FILLER_11_67
*1128 FILLER_11_680
*1129 FILLER_11_737
*1130 FILLER_11_74
*1131 FILLER_11_81
*1132 FILLER_11_88
*1133 FILLER_11_95
*1134 FILLER_12_104
*1135 FILLER_12_111
*1136 FILLER_12_118
*1137 FILLER_12_125
*1138 FILLER_12_13
*1139 FILLER_12_132
*1140 FILLER_12_139
*1141 FILLER_12_146
*1142 FILLER_12_153
*1143 FILLER_12_160
*1144 FILLER_12_167
*1145 FILLER_12_174
*1146 FILLER_12_181
*1147 FILLER_12_188
*1148 FILLER_12_195
*1149 FILLER_12_20
*1150 FILLER_12_202
*1151 FILLER_12_209
*1152 FILLER_12_216
*1153 FILLER_12_223
*1154 FILLER_12_230
*1155 FILLER_12_237
*1156 FILLER_12_244
*1157 FILLER_12_251
*1158 FILLER_12_258
*1159 FILLER_12_265
*1160 FILLER_12_27
*1161 FILLER_12_272
*1162 FILLER_12_279
*1163 FILLER_12_286
*1164 FILLER_12_293
*1165 FILLER_12_300
*1166 FILLER_12_307
*1167 FILLER_12_314
*1168 FILLER_12_321
*1169 FILLER_12_328
*1170 FILLER_12_335
*1171 FILLER_12_34
*1172 FILLER_12_342
*1173 FILLER_12_349
*1174 FILLER_12_356
*1175 FILLER_12_363
*1176 FILLER_12_370
*1177 FILLER_12_377
*1178 FILLER_12_384
*1179 FILLER_12_4
*1180 FILLER_12_41
*1181 FILLER_12_410
*1182 FILLER_12_417
*1183 FILLER_12_424
*1184 FILLER_12_431
*1185 FILLER_12_438
*1186 FILLER_12_445
*1187 FILLER_12_452
*1188 FILLER_12_459
*1189 FILLER_12_466
*1190 FILLER_12_473
*1191 FILLER_12_48
*1192 FILLER_12_480
*1193 FILLER_12_487
*1194 FILLER_12_494
*1195 FILLER_12_501
*1196 FILLER_12_508
*1197 FILLER_12_515
*1198 FILLER_12_522
*1199 FILLER_12_529
*1200 FILLER_12_536
*1201 FILLER_12_543
*1202 FILLER_12_55
*1203 FILLER_12_550
*1204 FILLER_12_557
*1205 FILLER_12_564
*1206 FILLER_12_571
*1207 FILLER_12_578
*1208 FILLER_12_585
*1209 FILLER_12_592
*1210 FILLER_12_599
*1211 FILLER_12_606
*1212 FILLER_12_62
*1213 FILLER_12_648
*1214 FILLER_12_686
*1215 FILLER_12_69
*1216 FILLER_12_690
*1217 FILLER_12_694
*1218 FILLER_12_710
*1219 FILLER_12_76
*1220 FILLER_12_8
*1221 FILLER_12_83
*1222 FILLER_12_90
*1223 FILLER_12_97
*1224 FILLER_13_104
*1225 FILLER_13_111
*1226 FILLER_13_118
*1227 FILLER_13_125
*1228 FILLER_13_13
*1229 FILLER_13_132
*1230 FILLER_13_139
*1231 FILLER_13_146
*1232 FILLER_13_153
*1233 FILLER_13_160
*1234 FILLER_13_167
*1235 FILLER_13_174
*1236 FILLER_13_181
*1237 FILLER_13_188
*1238 FILLER_13_195
*1239 FILLER_13_20
*1240 FILLER_13_202
*1241 FILLER_13_209
*1242 FILLER_13_216
*1243 FILLER_13_223
*1244 FILLER_13_230
*1245 FILLER_13_237
*1246 FILLER_13_244
*1247 FILLER_13_251
*1248 FILLER_13_258
*1249 FILLER_13_265
*1250 FILLER_13_27
*1251 FILLER_13_272
*1252 FILLER_13_279
*1253 FILLER_13_286
*1254 FILLER_13_293
*1255 FILLER_13_300
*1256 FILLER_13_307
*1257 FILLER_13_314
*1258 FILLER_13_321
*1259 FILLER_13_328
*1260 FILLER_13_335
*1261 FILLER_13_34
*1262 FILLER_13_342
*1263 FILLER_13_349
*1264 FILLER_13_356
*1265 FILLER_13_363
*1266 FILLER_13_370
*1267 FILLER_13_377
*1268 FILLER_13_384
*1269 FILLER_13_4
*1270 FILLER_13_41
*1271 FILLER_13_416
*1272 FILLER_13_423
*1273 FILLER_13_430
*1274 FILLER_13_437
*1275 FILLER_13_444
*1276 FILLER_13_451
*1277 FILLER_13_458
*1278 FILLER_13_465
*1279 FILLER_13_472
*1280 FILLER_13_479
*1281 FILLER_13_48
*1282 FILLER_13_486
*1283 FILLER_13_493
*1284 FILLER_13_500
*1285 FILLER_13_507
*1286 FILLER_13_514
*1287 FILLER_13_521
*1288 FILLER_13_528
*1289 FILLER_13_535
*1290 FILLER_13_542
*1291 FILLER_13_549
*1292 FILLER_13_55
*1293 FILLER_13_556
*1294 FILLER_13_563
*1295 FILLER_13_570
*1296 FILLER_13_577
*1297 FILLER_13_584
*1298 FILLER_13_591
*1299 FILLER_13_598
*1300 FILLER_13_605
*1301 FILLER_13_62
*1302 FILLER_13_630
*1303 FILLER_13_651
*1304 FILLER_13_69
*1305 FILLER_13_742
*1306 FILLER_13_76
*1307 FILLER_13_769
*1308 FILLER_13_781
*1309 FILLER_13_783
*1310 FILLER_13_792
*1311 FILLER_13_794
*1312 FILLER_13_800
*1313 FILLER_13_804
*1314 FILLER_13_808
*1315 FILLER_13_812
*1316 FILLER_13_817
*1317 FILLER_13_821
*1318 FILLER_13_83
*1319 FILLER_13_90
*1320 FILLER_13_97
*1321 FILLER_14_103
*1322 FILLER_14_110
*1323 FILLER_14_117
*1324 FILLER_14_124
*1325 FILLER_14_131
*1326 FILLER_14_138
*1327 FILLER_14_145
*1328 FILLER_14_152
*1329 FILLER_14_159
*1330 FILLER_14_166
*1331 FILLER_14_173
*1332 FILLER_14_180
*1333 FILLER_14_187
*1334 FILLER_14_194
*1335 FILLER_14_201
*1336 FILLER_14_208
*1337 FILLER_14_215
*1338 FILLER_14_222
*1339 FILLER_14_229
*1340 FILLER_14_236
*1341 FILLER_14_243
*1342 FILLER_14_250
*1343 FILLER_14_257
*1344 FILLER_14_26
*1345 FILLER_14_264
*1346 FILLER_14_271
*1347 FILLER_14_278
*1348 FILLER_14_285
*1349 FILLER_14_292
*1350 FILLER_14_299
*1351 FILLER_14_306
*1352 FILLER_14_313
*1353 FILLER_14_320
*1354 FILLER_14_327
*1355 FILLER_14_33
*1356 FILLER_14_334
*1357 FILLER_14_341
*1358 FILLER_14_348
*1359 FILLER_14_355
*1360 FILLER_14_362
*1361 FILLER_14_369
*1362 FILLER_14_376
*1363 FILLER_14_383
*1364 FILLER_14_390
*1365 FILLER_14_397
*1366 FILLER_14_40
*1367 FILLER_14_404
*1368 FILLER_14_411
*1369 FILLER_14_418
*1370 FILLER_14_425
*1371 FILLER_14_432
*1372 FILLER_14_439
*1373 FILLER_14_446
*1374 FILLER_14_453
*1375 FILLER_14_460
*1376 FILLER_14_467
*1377 FILLER_14_47
*1378 FILLER_14_474
*1379 FILLER_14_481
*1380 FILLER_14_488
*1381 FILLER_14_495
*1382 FILLER_14_502
*1383 FILLER_14_509
*1384 FILLER_14_516
*1385 FILLER_14_523
*1386 FILLER_14_530
*1387 FILLER_14_537
*1388 FILLER_14_54
*1389 FILLER_14_544
*1390 FILLER_14_551
*1391 FILLER_14_558
*1392 FILLER_14_565
*1393 FILLER_14_572
*1394 FILLER_14_579
*1395 FILLER_14_586
*1396 FILLER_14_593
*1397 FILLER_14_600
*1398 FILLER_14_607
*1399 FILLER_14_61
*1400 FILLER_14_614
*1401 FILLER_14_618
*1402 FILLER_14_646
*1403 FILLER_14_653
*1404 FILLER_14_669
*1405 FILLER_14_676
*1406 FILLER_14_68
*1407 FILLER_14_685
*1408 FILLER_14_692
*1409 FILLER_14_740
*1410 FILLER_14_75
*1411 FILLER_14_768
*1412 FILLER_14_775
*1413 FILLER_14_782
*1414 FILLER_14_790
*1415 FILLER_14_8
*1416 FILLER_14_818
*1417 FILLER_14_82
*1418 FILLER_14_822
*1419 FILLER_14_89
*1420 FILLER_14_96
*1421 FILLER_15_0
*1422 FILLER_15_100
*1423 FILLER_15_107
*1424 FILLER_15_114
*1425 FILLER_15_121
*1426 FILLER_15_128
*1427 FILLER_15_135
*1428 FILLER_15_142
*1429 FILLER_15_149
*1430 FILLER_15_156
*1431 FILLER_15_163
*1432 FILLER_15_170
*1433 FILLER_15_177
*1434 FILLER_15_184
*1435 FILLER_15_191
*1436 FILLER_15_198
*1437 FILLER_15_205
*1438 FILLER_15_212
*1439 FILLER_15_219
*1440 FILLER_15_226
*1441 FILLER_15_233
*1442 FILLER_15_240
*1443 FILLER_15_247
*1444 FILLER_15_254
*1445 FILLER_15_261
*1446 FILLER_15_268
*1447 FILLER_15_275
*1448 FILLER_15_282
*1449 FILLER_15_289
*1450 FILLER_15_296
*1451 FILLER_15_303
*1452 FILLER_15_310
*1453 FILLER_15_317
*1454 FILLER_15_324
*1455 FILLER_15_331
*1456 FILLER_15_338
*1457 FILLER_15_345
*1458 FILLER_15_352
*1459 FILLER_15_359
*1460 FILLER_15_366
*1461 FILLER_15_37
*1462 FILLER_15_373
*1463 FILLER_15_380
*1464 FILLER_15_387
*1465 FILLER_15_394
*1466 FILLER_15_401
*1467 FILLER_15_408
*1468 FILLER_15_415
*1469 FILLER_15_422
*1470 FILLER_15_429
*1471 FILLER_15_436
*1472 FILLER_15_44
*1473 FILLER_15_443
*1474 FILLER_15_450
*1475 FILLER_15_457
*1476 FILLER_15_464
*1477 FILLER_15_471
*1478 FILLER_15_478
*1479 FILLER_15_485
*1480 FILLER_15_492
*1481 FILLER_15_499
*1482 FILLER_15_506
*1483 FILLER_15_51
*1484 FILLER_15_513
*1485 FILLER_15_520
*1486 FILLER_15_527
*1487 FILLER_15_534
*1488 FILLER_15_541
*1489 FILLER_15_548
*1490 FILLER_15_555
*1491 FILLER_15_562
*1492 FILLER_15_569
*1493 FILLER_15_576
*1494 FILLER_15_58
*1495 FILLER_15_583
*1496 FILLER_15_590
*1497 FILLER_15_597
*1498 FILLER_15_604
*1499 FILLER_15_611
*1500 FILLER_15_618
*1501 FILLER_15_622
*1502 FILLER_15_628
*1503 FILLER_15_633
*1504 FILLER_15_640
*1505 FILLER_15_642
*1506 FILLER_15_65
*1507 FILLER_15_670
*1508 FILLER_15_72
*1509 FILLER_15_754
*1510 FILLER_15_761
*1511 FILLER_15_789
*1512 FILLER_15_79
*1513 FILLER_15_793
*1514 FILLER_15_799
*1515 FILLER_15_805
*1516 FILLER_15_810
*1517 FILLER_15_817
*1518 FILLER_15_821
*1519 FILLER_15_86
*1520 FILLER_15_93
*1521 FILLER_16_102
*1522 FILLER_16_109
*1523 FILLER_16_116
*1524 FILLER_16_123
*1525 FILLER_16_130
*1526 FILLER_16_137
*1527 FILLER_16_144
*1528 FILLER_16_151
*1529 FILLER_16_158
*1530 FILLER_16_165
*1531 FILLER_16_172
*1532 FILLER_16_179
*1533 FILLER_16_186
*1534 FILLER_16_193
*1535 FILLER_16_200
*1536 FILLER_16_207
*1537 FILLER_16_214
*1538 FILLER_16_22
*1539 FILLER_16_221
*1540 FILLER_16_228
*1541 FILLER_16_235
*1542 FILLER_16_242
*1543 FILLER_16_249
*1544 FILLER_16_256
*1545 FILLER_16_263
*1546 FILLER_16_270
*1547 FILLER_16_277
*1548 FILLER_16_284
*1549 FILLER_16_291
*1550 FILLER_16_298
*1551 FILLER_16_305
*1552 FILLER_16_312
*1553 FILLER_16_319
*1554 FILLER_16_32
*1555 FILLER_16_326
*1556 FILLER_16_333
*1557 FILLER_16_340
*1558 FILLER_16_347
*1559 FILLER_16_354
*1560 FILLER_16_361
*1561 FILLER_16_368
*1562 FILLER_16_375
*1563 FILLER_16_382
*1564 FILLER_16_389
*1565 FILLER_16_39
*1566 FILLER_16_396
*1567 FILLER_16_4
*1568 FILLER_16_403
*1569 FILLER_16_410
*1570 FILLER_16_417
*1571 FILLER_16_424
*1572 FILLER_16_431
*1573 FILLER_16_438
*1574 FILLER_16_445
*1575 FILLER_16_452
*1576 FILLER_16_459
*1577 FILLER_16_46
*1578 FILLER_16_466
*1579 FILLER_16_473
*1580 FILLER_16_480
*1581 FILLER_16_487
*1582 FILLER_16_494
*1583 FILLER_16_501
*1584 FILLER_16_508
*1585 FILLER_16_515
*1586 FILLER_16_522
*1587 FILLER_16_529
*1588 FILLER_16_53
*1589 FILLER_16_536
*1590 FILLER_16_543
*1591 FILLER_16_550
*1592 FILLER_16_557
*1593 FILLER_16_564
*1594 FILLER_16_571
*1595 FILLER_16_578
*1596 FILLER_16_585
*1597 FILLER_16_592
*1598 FILLER_16_599
*1599 FILLER_16_60
*1600 FILLER_16_606
*1601 FILLER_16_613
*1602 FILLER_16_620
*1603 FILLER_16_627
*1604 FILLER_16_634
*1605 FILLER_16_641
*1606 FILLER_16_648
*1607 FILLER_16_655
*1608 FILLER_16_662
*1609 FILLER_16_67
*1610 FILLER_16_675
*1611 FILLER_16_684
*1612 FILLER_16_688
*1613 FILLER_16_74
*1614 FILLER_16_764
*1615 FILLER_16_771
*1616 FILLER_16_775
*1617 FILLER_16_81
*1618 FILLER_16_822
*1619 FILLER_16_88
*1620 FILLER_16_95
*1621 FILLER_17_0
*1622 FILLER_17_106
*1623 FILLER_17_113
*1624 FILLER_17_120
*1625 FILLER_17_127
*1626 FILLER_17_134
*1627 FILLER_17_141
*1628 FILLER_17_148
*1629 FILLER_17_155
*1630 FILLER_17_162
*1631 FILLER_17_169
*1632 FILLER_17_176
*1633 FILLER_17_183
*1634 FILLER_17_190
*1635 FILLER_17_197
*1636 FILLER_17_204
*1637 FILLER_17_211
*1638 FILLER_17_218
*1639 FILLER_17_225
*1640 FILLER_17_232
*1641 FILLER_17_239
*1642 FILLER_17_246
*1643 FILLER_17_253
*1644 FILLER_17_260
*1645 FILLER_17_267
*1646 FILLER_17_274
*1647 FILLER_17_28
*1648 FILLER_17_281
*1649 FILLER_17_288
*1650 FILLER_17_295
*1651 FILLER_17_302
*1652 FILLER_17_309
*1653 FILLER_17_316
*1654 FILLER_17_323
*1655 FILLER_17_330
*1656 FILLER_17_337
*1657 FILLER_17_344
*1658 FILLER_17_351
*1659 FILLER_17_358
*1660 FILLER_17_365
*1661 FILLER_17_372
*1662 FILLER_17_379
*1663 FILLER_17_386
*1664 FILLER_17_393
*1665 FILLER_17_400
*1666 FILLER_17_407
*1667 FILLER_17_414
*1668 FILLER_17_421
*1669 FILLER_17_428
*1670 FILLER_17_435
*1671 FILLER_17_442
*1672 FILLER_17_449
*1673 FILLER_17_456
*1674 FILLER_17_463
*1675 FILLER_17_470
*1676 FILLER_17_477
*1677 FILLER_17_484
*1678 FILLER_17_491
*1679 FILLER_17_498
*1680 FILLER_17_505
*1681 FILLER_17_512
*1682 FILLER_17_519
*1683 FILLER_17_526
*1684 FILLER_17_533
*1685 FILLER_17_540
*1686 FILLER_17_547
*1687 FILLER_17_554
*1688 FILLER_17_561
*1689 FILLER_17_568
*1690 FILLER_17_57
*1691 FILLER_17_575
*1692 FILLER_17_582
*1693 FILLER_17_589
*1694 FILLER_17_596
*1695 FILLER_17_603
*1696 FILLER_17_610
*1697 FILLER_17_617
*1698 FILLER_17_624
*1699 FILLER_17_631
*1700 FILLER_17_638
*1701 FILLER_17_64
*1702 FILLER_17_645
*1703 FILLER_17_652
*1704 FILLER_17_659
*1705 FILLER_17_661
*1706 FILLER_17_694
*1707 FILLER_17_71
*1708 FILLER_17_741
*1709 FILLER_17_78
*1710 FILLER_17_806
*1711 FILLER_17_813
*1712 FILLER_17_820
*1713 FILLER_17_822
*1714 FILLER_17_85
*1715 FILLER_17_92
*1716 FILLER_17_99
*1717 FILLER_18_104
*1718 FILLER_18_111
*1719 FILLER_18_118
*1720 FILLER_18_125
*1721 FILLER_18_132
*1722 FILLER_18_139
*1723 FILLER_18_146
*1724 FILLER_18_153
*1725 FILLER_18_160
*1726 FILLER_18_167
*1727 FILLER_18_174
*1728 FILLER_18_181
*1729 FILLER_18_188
*1730 FILLER_18_195
*1731 FILLER_18_202
*1732 FILLER_18_209
*1733 FILLER_18_216
*1734 FILLER_18_223
*1735 FILLER_18_230
*1736 FILLER_18_237
*1737 FILLER_18_244
*1738 FILLER_18_251
*1739 FILLER_18_258
*1740 FILLER_18_265
*1741 FILLER_18_272
*1742 FILLER_18_279
*1743 FILLER_18_286