*SPEF "ieee 1481-1999"
*DESIGN "heichips25_pudding"
*DATE "03:48:13 Tuesday February 24, 2026"
*VENDOR "The OpenROAD Project"
*PROGRAM "OpenROAD"
*VERSION "dfc4f595dfb2e1c346492ff1f0274abb28725acf"
*DESIGN_FLOW "NAME_SCOPE LOCAL" "PIN_CAP NONE"
*DIVIDER /
*DELIMITER :
*BUS_DELIMITER []
*T_UNIT 1 NS
*C_UNIT 1 PF
*R_UNIT 1 OHM
*L_UNIT 1 HENRY

*NAME_MAP
*3 clk
*4 ena
*5 i_in
*6 i_out
*7 rst_n
*8 ui_in[0]
*9 ui_in[1]
*10 ui_in[2]
*11 ui_in[3]
*12 ui_in[4]
*13 ui_in[5]
*14 ui_in[6]
*15 ui_in[7]
*16 uio_in[0]
*17 uio_in[1]
*18 uio_in[2]
*19 uio_in[3]
*20 uio_in[4]
*21 uio_in[5]
*22 uio_in[6]
*23 uio_in[7]
*24 net
*25 net228
*26 net229
*27 net230
*28 net231
*29 net232
*30 net233
*31 net234
*32 uio_out[0]
*33 uio_out[1]
*34 uio_out[2]
*35 uio_out[3]
*36 uio_out[4]
*37 uio_out[5]
*38 uio_out[6]
*39 uio_out[7]
*40 uo_out[0]
*41 uo_out[1]
*42 uo_out[2]
*43 uo_out[3]
*44 uo_out[4]
*45 uo_out[5]
*46 uo_out[6]
*47 uo_out[7]
*48 _0000_
*49 _0001_
*50 _0002_
*51 _0003_
*52 _0004_
*53 _0005_
*54 _0006_
*55 _0007_
*56 _0008_
*57 _0009_
*58 _0010_
*59 _0011_
*60 _0012_
*61 _0013_
*62 _0014_
*63 _0015_
*64 _0016_
*65 _0017_
*66 _0018_
*67 _0019_
*68 _0020_
*69 _0021_
*70 _0022_
*71 _0023_
*72 _0024_
*73 _0025_
*74 _0026_
*75 _0027_
*76 _0028_
*77 _0029_
*78 _0030_
*79 _0031_
*80 _0032_
*81 _0033_
*82 _0034_
*83 _0035_
*84 _0036_
*85 _0037_
*86 _0038_
*87 _0039_
*88 _0040_
*89 _0041_
*90 _0042_
*91 _0043_
*92 _0044_
*93 _0045_
*94 _0046_
*95 _0047_
*96 _0048_
*97 _0049_
*98 _0050_
*99 _0051_
*100 _0052_
*101 _0053_
*102 _0054_
*103 _0055_
*104 _0056_
*105 _0057_
*106 _0058_
*107 _0059_
*108 _0060_
*109 _0061_
*110 _0062_
*111 _0063_
*112 _0064_
*113 _0065_
*114 _0066_
*115 _0067_
*116 _0068_
*117 _0069_
*118 _0070_
*119 _0071_
*120 _0072_
*121 _0073_
*122 _0074_
*123 _0075_
*124 _0076_
*125 _0077_
*126 _0078_
*127 _0079_
*128 _0080_
*129 _0081_
*130 _0082_
*131 _0083_
*132 _0084_
*133 _0085_
*134 _0086_
*135 _0087_
*136 _0088_
*137 _0089_
*138 _0090_
*139 _0091_
*140 _0092_
*141 _0093_
*142 _0094_
*143 _0095_
*144 _0096_
*145 _0097_
*146 _0098_
*147 _0099_
*148 _0100_
*149 _0101_
*150 _0102_
*151 _0103_
*152 _0104_
*153 _0105_
*154 _0106_
*155 _0107_
*156 _0108_
*157 _0109_
*158 _0110_
*159 _0111_
*160 _0112_
*161 _0113_
*162 _0114_
*163 _0115_
*164 _0116_
*165 _0117_
*166 _0118_
*167 _0119_
*168 _0120_
*169 _0121_
*170 _0122_
*171 _0123_
*172 _0124_
*173 _0125_
*174 _0126_
*175 _0127_
*176 _0128_
*177 _0129_
*178 _0130_
*179 _0131_
*180 _0132_
*181 _0133_
*182 _0134_
*183 _0135_
*184 _0136_
*185 _0137_
*186 _0138_
*187 _0139_
*188 _0140_
*189 _0141_
*190 _0142_
*191 _0143_
*192 _0144_
*193 _0145_
*194 _0146_
*195 _0147_
*196 _0148_
*197 _0149_
*198 _0150_
*199 _0151_
*200 _0152_
*201 _0153_
*202 _0154_
*203 _0155_
*204 _0156_
*205 _0157_
*206 _0158_
*207 _0159_
*208 _0160_
*209 _0161_
*210 _0162_
*211 _0163_
*212 _0164_
*213 _0165_
*214 _0166_
*215 _0167_
*216 _0168_
*217 _0169_
*218 _0170_
*219 _0171_
*220 _0172_
*221 _0173_
*222 _0174_
*223 _0175_
*224 _0176_
*225 _0177_
*226 _0178_
*227 _0179_
*228 _0180_
*229 _0181_
*230 _0182_
*231 _0183_
*232 _0184_
*233 _0185_
*234 _0186_
*235 _0187_
*236 _0188_
*237 _0189_
*238 _0190_
*239 _0191_
*240 _0192_
*241 _0193_
*242 _0194_
*243 _0195_
*244 _0196_
*245 _0197_
*246 _0198_
*247 _0199_
*248 _0200_
*249 _0201_
*250 _0202_
*251 _0203_
*252 _0204_
*253 _0205_
*254 _0206_
*255 _0207_
*256 _0208_
*257 _0209_
*258 _0210_
*259 _0211_
*260 _0212_
*261 _0213_
*262 _0214_
*263 _0215_
*264 _0216_
*265 _0217_
*266 _0218_
*267 _0219_
*268 _0220_
*269 _0221_
*270 _0222_
*271 _0223_
*272 _0224_
*273 _0225_
*274 _0226_
*275 _0227_
*276 _0228_
*277 _0229_
*278 _0230_
*279 _0231_
*280 _0232_
*281 _0233_
*282 _0234_
*283 _0235_
*284 _0236_
*285 _0237_
*286 _0238_
*287 _0239_
*288 _0240_
*289 _0241_
*290 _0242_
*291 _0243_
*292 _0244_
*293 _0245_
*294 _0246_
*295 _0247_
*296 _0248_
*297 _0249_
*298 _0250_
*299 _0251_
*300 _0252_
*301 _0253_
*302 _0254_
*303 _0255_
*304 _0256_
*305 _0257_
*306 _0258_
*307 _0259_
*308 _0260_
*309 _0261_
*310 _0262_
*311 _0263_
*312 _0264_
*313 _0265_
*314 _0266_
*315 _0267_
*316 _0268_
*317 _0269_
*318 _0270_
*319 _0271_
*320 _0272_
*321 _0273_
*322 _0274_
*323 _0275_
*324 _0276_
*325 _0277_
*326 _0278_
*327 _0279_
*328 _0280_
*329 _0281_
*330 _0282_
*331 _0283_
*332 _0284_
*333 _0285_
*334 _0286_
*335 _0287_
*336 _0288_
*337 _0289_
*338 _0290_
*339 _0291_
*340 _0292_
*341 _0293_
*342 _0294_
*343 _0295_
*344 _0296_
*345 _0297_
*346 _0298_
*347 _0299_
*348 _0300_
*349 _0301_
*350 _0302_
*351 _0303_
*352 _0304_
*353 _0305_
*354 _0306_
*355 _0307_
*356 _0308_
*357 _0309_
*358 _0310_
*359 _0311_
*360 _0312_
*361 _0313_
*362 _0314_
*363 _0315_
*364 _0316_
*365 _0317_
*366 _0318_
*367 _0319_
*368 _0320_
*369 _0321_
*370 _0322_
*371 _0323_
*372 _0324_
*373 _0325_
*374 _0326_
*375 _0327_
*376 _0328_
*377 _0329_
*378 _0330_
*379 _0331_
*380 _0332_
*381 _0333_
*382 _0334_
*383 _0335_
*384 _0336_
*385 _0337_
*386 _0338_
*387 _0339_
*388 _0340_
*389 _0341_
*390 _0342_
*391 _0343_
*392 _0344_
*393 _0345_
*394 _0346_
*395 _0347_
*396 _0348_
*397 _0349_
*398 _0350_
*399 _0351_
*400 _0352_
*401 _0353_
*402 _0354_
*403 _0355_
*404 _0356_
*405 _0357_
*406 _0358_
*407 _0359_
*408 _0360_
*409 _0361_
*410 _0362_
*411 _0363_
*412 _0364_
*413 _0365_
*414 _0366_
*415 _0367_
*416 _0368_
*417 _0369_
*418 _0370_
*419 _0371_
*420 _0372_
*421 _0373_
*422 _0374_
*423 _0375_
*424 _0376_
*425 _0377_
*426 _0378_
*427 _0379_
*428 _0380_
*429 _0381_
*430 _0382_
*431 _0383_
*432 _0384_
*433 _0385_
*434 _0386_
*435 _0387_
*436 _0388_
*437 _0389_
*438 _0390_
*439 _0391_
*440 _0392_
*441 _0393_
*442 _0394_
*443 _0395_
*444 _0396_
*445 _0397_
*446 _0398_
*447 _0399_
*448 _0400_
*449 _0401_
*450 _0402_
*451 _0403_
*452 _0404_
*453 _0405_
*454 _0406_
*455 _0407_
*456 _0408_
*457 _0409_
*458 _0410_
*459 _0411_
*460 _0412_
*461 _0413_
*462 _0414_
*463 _0415_
*464 _0416_
*465 _0417_
*466 _0418_
*467 _0419_
*468 _0420_
*469 _0421_
*470 _0422_
*471 _0423_
*472 _0424_
*473 _0425_
*474 _0426_
*475 _0427_
*476 _0428_
*477 _0429_
*478 _0430_
*479 _0431_
*480 _0432_
*481 _0433_
*482 _0434_
*483 _0435_
*484 _0436_
*485 _0437_
*486 _0438_
*487 _0439_
*488 _0440_
*489 _0441_
*490 _0442_
*491 _0443_
*492 _0444_
*493 _0445_
*494 _0446_
*495 _0447_
*496 _0448_
*497 _0449_
*498 _0450_
*499 _0451_
*500 _0452_
*501 _0453_
*502 _0454_
*503 _0455_
*504 _0456_
*505 _0457_
*506 _0458_
*507 _0459_
*508 _0460_
*509 _0461_
*510 _0462_
*511 _0463_
*512 _0464_
*513 _0465_
*514 _0466_
*515 _0467_
*516 _0468_
*517 _0469_
*518 _0470_
*519 _0471_
*520 _0472_
*521 _0473_
*522 _0474_
*523 _0475_
*524 _0476_
*525 _0477_
*526 _0478_
*527 _0479_
*528 _0480_
*529 _0481_
*530 _0482_
*531 _0483_
*532 _0484_
*533 _0485_
*534 _0486_
*535 _0487_
*536 _0488_
*537 _0489_
*538 _0490_
*539 _0491_
*540 _0492_
*541 _0493_
*542 _0494_
*543 _0495_
*544 _0496_
*545 _0497_
*546 _0498_
*547 _0499_
*548 _0500_
*549 _0501_
*550 _0502_
*551 _0503_
*552 _0504_
*553 _0505_
*554 _0506_
*555 _0507_
*556 _0508_
*557 _0509_
*558 _0510_
*559 _0511_
*560 _0512_
*561 _0513_
*562 _0514_
*563 _0515_
*564 _0516_
*565 _0517_
*566 _0518_
*567 _0519_
*568 _0520_
*569 _0521_
*570 _0522_
*571 _0523_
*572 _0524_
*573 _0525_
*574 _0526_
*575 _0527_
*576 _0528_
*577 _0529_
*578 _0530_
*579 _0531_
*580 _0532_
*581 _0533_
*582 _0534_
*583 _0535_
*584 _0536_
*585 _0537_
*586 _0538_
*587 _0539_
*588 _0540_
*589 _0541_
*590 _0542_
*591 _0543_
*592 _0544_
*593 _0545_
*594 _0546_
*595 _0547_
*596 _0548_
*597 _0549_
*598 _0550_
*599 _0551_
*600 _0552_
*601 _0553_
*602 _0554_
*603 _0555_
*604 _0556_
*605 _0557_
*606 _0558_
*607 _0559_
*608 _0560_
*609 _0561_
*610 _0562_
*611 _0563_
*612 _0564_
*613 _0565_
*614 _0566_
*615 _0567_
*616 _0568_
*617 _0569_
*618 _0570_
*619 _0571_
*620 _0572_
*621 _0573_
*622 _0574_
*623 _0575_
*624 _0576_
*625 _0577_
*626 _0578_
*627 _0579_
*628 _0580_
*629 _0581_
*630 _0582_
*631 _0583_
*632 _0584_
*633 _0585_
*634 _0586_
*635 _0587_
*636 _0588_
*637 _0589_
*638 _0590_
*639 _0591_
*640 _0592_
*641 _0593_
*642 _0594_
*643 _0595_
*644 _0596_
*645 _0597_
*646 _0598_
*647 _0599_
*648 _0600_
*649 _0601_
*650 _0602_
*651 _0603_
*652 _0604_
*653 _0605_
*654 _0606_
*655 _0607_
*656 _0608_
*657 _0609_
*658 _0610_
*659 _0611_
*660 _0612_
*661 _0613_
*662 _0614_
*663 _0615_
*664 _0616_
*665 _0617_
*666 _0618_
*667 _0619_
*668 _0620_
*669 _0621_
*670 _0622_
*671 _0623_
*672 _0624_
*673 _0625_
*674 _0626_
*675 _0627_
*676 _0628_
*677 _0629_
*678 _0630_
*679 _0631_
*680 _0632_
*681 _0633_
*682 _0634_
*683 _0635_
*684 _0636_
*685 _0637_
*686 _0638_
*687 _0639_
*688 _0640_
*689 _0641_
*690 _0642_
*691 _0643_
*692 _0644_
*693 _0645_
*694 _0646_
*695 _0647_
*696 _0648_
*697 _0649_
*698 _0650_
*699 _0651_
*700 _0652_
*701 _0653_
*702 _0654_
*703 _0655_
*704 _0656_
*705 _0657_
*706 _0658_
*707 _0659_
*708 _0660_
*709 _0661_
*710 _0662_
*711 _0663_
*712 _0664_
*713 _0665_
*714 _0666_
*715 _0667_
*716 _0668_
*717 _0669_
*718 _0670_
*719 _0671_
*720 _0672_
*721 _0673_
*722 _0674_
*723 _0675_
*724 _0676_
*725 _0677_
*726 _0678_
*727 _0679_
*728 _0680_
*729 _0681_
*730 _0682_
*731 _0683_
*732 _0684_
*733 _0685_
*734 _0686_
*735 _0687_
*736 _0688_
*737 _0689_
*738 _0690_
*739 _0691_
*740 _0692_
*741 _0693_
*742 _0694_
*743 _0695_
*744 _0696_
*745 _0697_
*746 _0698_
*747 _0699_
*748 _0700_
*749 _0701_
*750 _0702_
*751 _0703_
*752 _0704_
*753 _0705_
*754 _0706_
*755 _0707_
*756 _0708_
*757 _0709_
*758 _0710_
*759 _0711_
*760 _0712_
*761 _0713_
*762 _0714_
*763 _0715_
*764 _0716_
*765 _0717_
*766 _0718_
*767 _0719_
*768 _0720_
*769 _0721_
*770 _0722_
*771 _0723_
*772 _0724_
*773 _0725_
*774 _0726_
*775 _0727_
*776 _0728_
*777 _0729_
*778 _0730_
*779 _0731_
*780 _0732_
*781 _0733_
*782 _0734_
*783 _0735_
*784 _0736_
*785 _0737_
*786 _0738_
*787 _0739_
*788 _0740_
*789 _0741_
*790 _0742_
*791 _0743_
*792 _0744_
*793 _0745_
*794 _0746_
*795 _0747_
*796 _0748_
*797 _0749_
*798 _0750_
*799 _0751_
*800 _0752_
*801 _0753_
*802 _0754_
*803 _0755_
*804 _0756_
*805 _0757_
*806 _0758_
*807 _0759_
*808 _0760_
*809 _0761_
*810 _0762_
*811 _0763_
*812 _0764_
*813 _0765_
*814 _0766_
*815 _0767_
*816 _0768_
*817 _0769_
*818 _0770_
*819 _0771_
*820 _0772_
*821 _0773_
*822 _0774_
*823 _0775_
*824 _0776_
*825 _0777_
*826 _0778_
*827 _0779_
*828 _0780_
*829 _0781_
*830 _0782_
*831 _0783_
*832 _0784_
*833 _0785_
*834 _0786_
*835 _0787_
*836 _0788_
*837 _0789_
*838 _0790_
*839 _0791_
*840 _0792_
*841 _0793_
*842 _0794_
*843 _0795_
*844 _0796_
*845 _0797_
*846 _0798_
*847 _0799_
*848 _0800_
*849 _0801_
*850 _0802_
*851 _0803_
*852 _0804_
*853 _0805_
*854 _0806_
*855 _0807_
*856 _0808_
*857 _0809_
*858 _0810_
*859 _0811_
*860 _0812_
*861 _0813_
*862 _0814_
*863 _0815_
*864 _0816_
*865 _0817_
*866 _0818_
*867 _0819_
*868 _0820_
*869 _0821_
*870 _0822_
*871 _0823_
*872 _0824_
*873 _0825_
*874 _0826_
*875 _0827_
*876 _0828_
*877 _0829_
*878 _0830_
*879 _0831_
*880 _0832_
*881 _0833_
*882 _0834_
*883 _0835_
*884 _0836_
*885 _0837_
*886 _0838_
*887 _0839_
*888 _0840_
*889 _0841_
*890 _0842_
*891 _0843_
*892 _0844_
*893 _0845_
*894 _0846_
*895 _0847_
*896 _0848_
*897 _0849_
*898 _0850_
*899 _0851_
*900 _0852_
*901 _0853_
*902 _0854_
*903 _0855_
*904 _0856_
*905 _0857_
*906 _0858_
*907 _0859_
*908 _0860_
*909 _0861_
*910 _0862_
*911 _0863_
*912 _0864_
*913 _0865_
*914 _0866_
*915 _0867_
*916 _0868_
*917 _0869_
*918 _0870_
*919 _0871_
*920 _0872_
*921 _0873_
*922 _0874_
*923 _0875_
*924 _0876_
*925 _0877_
*926 _0878_
*927 _0879_
*928 _0880_
*929 _0881_
*930 _0882_
*931 _0883_
*932 _0884_
*933 _0885_
*934 _0886_
*935 _0887_
*936 _0888_
*937 _0889_
*938 _0890_
*939 _0891_
*940 _0892_
*941 _0893_
*942 _0894_
*943 _0895_
*944 _0896_
*945 _0897_
*946 bias\[0\]
*947 bias\[1\]
*948 clknet_0_clk
*949 clknet_2_0__leaf_clk
*950 clknet_2_1__leaf_clk
*951 clknet_2_2__leaf_clk
*952 clknet_2_3__leaf_clk
*953 clknet_leaf_0_clk
*954 clknet_leaf_10_clk
*955 clknet_leaf_11_clk
*956 clknet_leaf_12_clk
*957 clknet_leaf_13_clk
*958 clknet_leaf_14_clk
*959 clknet_leaf_15_clk
*960 clknet_leaf_16_clk
*961 clknet_leaf_17_clk
*962 clknet_leaf_1_clk
*963 clknet_leaf_2_clk
*964 clknet_leaf_3_clk
*965 clknet_leaf_4_clk
*966 clknet_leaf_5_clk
*967 clknet_leaf_6_clk
*968 clknet_leaf_7_clk
*969 clknet_leaf_8_clk
*970 clknet_leaf_9_clk
*971 dacout
*972 daisychain\[0\]
*973 daisychain\[100\]
*974 daisychain\[101\]
*975 daisychain\[102\]
*976 daisychain\[103\]
*977 daisychain\[104\]
*978 daisychain\[105\]
*979 daisychain\[106\]
*980 daisychain\[107\]
*981 daisychain\[108\]
*982 daisychain\[109\]
*983 daisychain\[10\]
*984 daisychain\[110\]
*985 daisychain\[111\]
*986 daisychain\[112\]
*987 daisychain\[113\]
*988 daisychain\[114\]
*989 daisychain\[115\]
*990 daisychain\[116\]
*991 daisychain\[117\]
*992 daisychain\[118\]
*993 daisychain\[119\]
*994 daisychain\[11\]
*995 daisychain\[120\]
*996 daisychain\[121\]
*997 daisychain\[122\]
*998 daisychain\[123\]
*999 daisychain\[124\]
*1000 daisychain\[125\]
*1001 daisychain\[126\]
*1002 daisychain\[127\]
*1003 daisychain\[12\]
*1004 daisychain\[13\]
*1005 daisychain\[14\]
*1006 daisychain\[15\]
*1007 daisychain\[16\]
*1008 daisychain\[17\]
*1009 daisychain\[18\]
*1010 daisychain\[19\]
*1011 daisychain\[1\]
*1012 daisychain\[20\]
*1013 daisychain\[21\]
*1014 daisychain\[22\]
*1015 daisychain\[23\]
*1016 daisychain\[24\]
*1017 daisychain\[25\]
*1018 daisychain\[26\]
*1019 daisychain\[27\]
*1020 daisychain\[28\]
*1021 daisychain\[29\]
*1022 daisychain\[2\]
*1023 daisychain\[30\]
*1024 daisychain\[31\]
*1025 daisychain\[32\]
*1026 daisychain\[33\]
*1027 daisychain\[34\]
*1028 daisychain\[35\]
*1029 daisychain\[36\]
*1030 daisychain\[37\]
*1031 daisychain\[38\]
*1032 daisychain\[39\]
*1033 daisychain\[3\]
*1034 daisychain\[40\]
*1035 daisychain\[41\]
*1036 daisychain\[42\]
*1037 daisychain\[43\]
*1038 daisychain\[44\]
*1039 daisychain\[45\]
*1040 daisychain\[46\]
*1041 daisychain\[47\]
*1042 daisychain\[48\]
*1043 daisychain\[49\]
*1044 daisychain\[4\]
*1045 daisychain\[50\]
*1046 daisychain\[51\]
*1047 daisychain\[52\]
*1048 daisychain\[53\]
*1049 daisychain\[54\]
*1050 daisychain\[55\]
*1051 daisychain\[56\]
*1052 daisychain\[57\]
*1053 daisychain\[58\]
*1054 daisychain\[59\]
*1055 daisychain\[5\]
*1056 daisychain\[60\]
*1057 daisychain\[61\]
*1058 daisychain\[62\]
*1059 daisychain\[63\]
*1060 daisychain\[64\]
*1061 daisychain\[65\]
*1062 daisychain\[66\]
*1063 daisychain\[67\]
*1064 daisychain\[68\]
*1065 daisychain\[69\]
*1066 daisychain\[6\]
*1067 daisychain\[70\]
*1068 daisychain\[71\]
*1069 daisychain\[72\]
*1070 daisychain\[73\]
*1071 daisychain\[74\]
*1072 daisychain\[75\]
*1073 daisychain\[76\]
*1074 daisychain\[77\]
*1075 daisychain\[78\]
*1076 daisychain\[79\]
*1077 daisychain\[7\]
*1078 daisychain\[80\]
*1079 daisychain\[81\]
*1080 daisychain\[82\]
*1081 daisychain\[83\]
*1082 daisychain\[84\]
*1083 daisychain\[85\]
*1084 daisychain\[86\]
*1085 daisychain\[87\]
*1086 daisychain\[88\]
*1087 daisychain\[89\]
*1088 daisychain\[8\]
*1089 daisychain\[90\]
*1090 daisychain\[91\]
*1091 daisychain\[92\]
*1092 daisychain\[93\]
*1093 daisychain\[94\]
*1094 daisychain\[95\]
*1095 daisychain\[96\]
*1096 daisychain\[97\]
*1097 daisychain\[98\]
*1098 daisychain\[99\]
*1099 daisychain\[9\]
*1100 digitalen\.g\[0\]\.u\.OUTN
*1101 digitalen\.g\[0\]\.u\.OUTP
*1102 digitalen\.g\[1\]\.u\.OUTN
*1103 digitalen\.g\[1\]\.u\.OUTP
*1104 digitalen\.g\[2\]\.u\.OUTN
*1105 digitalen\.g\[2\]\.u\.OUTP
*1106 digitalen\.g\[3\]\.u\.OUTN
*1107 digitalen\.g\[3\]\.u\.OUTP
*1108 iref\[0\]
*1109 iref\[1\]
*1110 net1
*1111 net10
*1112 net100
*1113 net101
*1114 net102
*1115 net103
*1116 net104
*1117 net105
*1118 net106
*1119 net107
*1120 net108
*1121 net109
*1122 net11
*1123 net110
*1124 net111
*1125 net112
*1126 net113
*1127 net114
*1128 net115
*1129 net116
*1130 net117
*1131 net118
*1132 net119
*1133 net12
*1134 net120
*1135 net121
*1136 net122
*1137 net123
*1138 net124
*1139 net125
*1140 net126
*1141 net127
*1142 net128
*1143 net129
*1144 net13
*1145 net130
*1146 net131
*1147 net132
*1148 net133
*1149 net134
*1150 net135
*1151 net136
*1152 net137
*1153 net138
*1154 net139
*1155 net14
*1156 net140
*1157 net141
*1158 net142
*1159 net143
*1160 net144
*1161 net145
*1162 net146
*1163 net147
*1164 net148
*1165 net149
*1166 net15
*1167 net150
*1168 net151
*1169 net152
*1170 net153
*1171 net154
*1172 net155
*1173 net156
*1174 net157
*1175 net158
*1176 net159
*1177 net16
*1178 net160
*1179 net161
*1180 net162
*1181 net163
*1182 net164
*1183 net165
*1184 net166
*1185 net167
*1186 net168
*1187 net169
*1188 net17
*1189 net170
*1190 net171
*1191 net172
*1192 net173
*1193 net174
*1194 net175
*1195 net176
*1196 net177
*1197 net178
*1198 net179
*1199 net18
*1200 net180
*1201 net181
*1202 net182
*1203 net183
*1204 net184
*1205 net185
*1206 net186
*1207 net187
*1208 net188
*1209 net189
*1210 net19
*1211 net190
*1212 net191
*1213 net192
*1214 net193
*1215 net194
*1216 net195
*1217 net196
*1218 net197
*1219 net198
*1220 net199
*1221 net2
*1222 net20
*1223 net200
*1224 net201
*1225 net202
*1226 net203
*1227 net204
*1228 net205
*1229 net206
*1230 net207
*1231 net208
*1232 net209
*1233 net21
*1234 net210
*1235 net211
*1236 net212
*1237 net213
*1238 net214
*1239 net215
*1240 net216
*1241 net217
*1242 net218
*1243 net219
*1244 net22
*1245 net220
*1246 net221
*1247 net222
*1248 net223
*1249 net224
*1250 net225
*1251 net226
*1252 net227
*1253 net23
*1254 net24
*1255 net25
*1256 net26
*1257 net27
*1258 net28
*1259 net29
*1260 net3
*1261 net30
*1262 net31
*1263 net32
*1264 net33
*1265 net34
*1266 net35
*1267 net36
*1268 net37
*1269 net38
*1270 net39
*1271 net4
*1272 net40
*1273 net41
*1274 net42
*1275 net43
*1276 net44
*1277 net45
*1278 net46
*1279 net47
*1280 net48
*1281 net49
*1282 net5
*1283 net50
*1284 net51
*1285 net52
*1286 net53
*1287 net54
*1288 net55
*1289 net56
*1290 net57
*1291 net58
*1292 net59
*1293 net6
*1294 net60
*1295 net61
*1296 net62
*1297 net63
*1298 net64
*1299 net65
*1300 net66
*1301 net67
*1302 net68
*1303 net69
*1304 net7
*1305 net70
*1306 net71
*1307 net72
*1308 net73
*1309 net74
*1310 net75
*1311 net76
*1312 net77
*1313 net78
*1314 net79
*1315 net8
*1316 net80
*1317 net81
*1318 net82
*1319 net83
*1320 net84
*1321 net85
*1322 net86
*1323 net87
*1324 net88
*1325 net89
*1326 net9
*1327 net90
*1328 net91
*1329 net92
*1330 net93
*1331 net94
*1332 net95
*1333 net96
*1334 net97
*1335 net98
*1336 net99
*1337 state\[0\]
*1338 state\[100\]
*1339 state\[101\]
*1340 state\[102\]
*1341 state\[103\]
*1342 state\[104\]
*1343 state\[105\]
*1344 state\[106\]
*1345 state\[107\]
*1346 state\[108\]
*1347 state\[109\]
*1348 state\[10\]
*1349 state\[110\]
*1350 state\[111\]
*1351 state\[112\]
*1352 state\[113\]
*1353 state\[114\]
*1354 state\[115\]
*1355 state\[116\]
*1356 state\[117\]
*1357 state\[118\]
*1358 state\[119\]
*1359 state\[11\]
*1360 state\[120\]
*1361 state\[121\]
*1362 state\[122\]
*1363 state\[123\]
*1364 state\[124\]
*1365 state\[125\]
*1366 state\[126\]
*1367 state\[127\]
*1368 state\[12\]
*1369 state\[13\]
*1370 state\[14\]
*1371 state\[15\]
*1372 state\[16\]
*1373 state\[17\]
*1374 state\[18\]
*1375 state\[19\]
*1376 state\[1\]
*1377 state\[20\]
*1378 state\[21\]
*1379 state\[22\]
*1380 state\[23\]
*1381 state\[24\]
*1382 state\[25\]
*1383 state\[26\]
*1384 state\[27\]
*1385 state\[28\]
*1386 state\[29\]
*1387 state\[2\]
*1388 state\[30\]
*1389 state\[31\]
*1390 state\[32\]
*1391 state\[33\]
*1392 state\[34\]
*1393 state\[35\]
*1394 state\[36\]
*1395 state\[37\]
*1396 state\[38\]
*1397 state\[39\]
*1398 state\[3\]
*1399 state\[40\]
*1400 state\[41\]
*1401 state\[42\]
*1402 state\[43\]
*1403 state\[44\]
*1404 state\[45\]
*1405 state\[46\]
*1406 state\[47\]
*1407 state\[48\]
*1408 state\[49\]
*1409 state\[4\]
*1410 state\[50\]
*1411 state\[51\]
*1412 state\[52\]
*1413 state\[53\]
*1414 state\[54\]
*1415 state\[55\]
*1416 state\[56\]
*1417 state\[57\]
*1418 state\[58\]
*1419 state\[59\]
*1420 state\[5\]
*1421 state\[60\]
*1422 state\[61\]
*1423 state\[62\]
*1424 state\[63\]
*1425 state\[64\]
*1426 state\[65\]
*1427 state\[66\]
*1428 state\[67\]
*1429 state\[68\]
*1430 state\[69\]
*1431 state\[6\]
*1432 state\[70\]
*1433 state\[71\]
*1434 state\[72\]
*1435 state\[73\]
*1436 state\[74\]
*1437 state\[75\]
*1438 state\[76\]
*1439 state\[77\]
*1440 state\[78\]
*1441 state\[79\]
*1442 state\[7\]
*1443 state\[80\]
*1444 state\[81\]
*1445 state\[82\]
*1446 state\[83\]
*1447 state\[84\]
*1448 state\[85\]
*1449 state\[86\]
*1450 state\[87\]
*1451 state\[88\]
*1452 state\[89\]
*1453 state\[8\]
*1454 state\[90\]
*1455 state\[91\]
*1456 state\[92\]
*1457 state\[93\]
*1458 state\[94\]
*1459 state\[95\]
*1460 state\[96\]
*1461 state\[97\]
*1462 state\[98\]
*1463 state\[99\]
*1464 state\[9\]
*1465 vdda\[0\]
*1466 vdda\[1\]
*1467 ANTENNA_1
*1468 ANTENNA_2
*1469 ANTENNA_3
*1470 ANTENNA_4
*1471 ANTENNA_5
*1472 ANTENNA_6
*1473 FILLER_0_0
*1474 FILLER_0_105
*1475 FILLER_0_112
*1476 FILLER_0_119
*1477 FILLER_0_126
*1478 FILLER_0_133
*1479 FILLER_0_14
*1480 FILLER_0_140
*1481 FILLER_0_147
*1482 FILLER_0_154
*1483 FILLER_0_161
*1484 FILLER_0_168
*1485 FILLER_0_175
*1486 FILLER_0_182
*1487 FILLER_0_189
*1488 FILLER_0_196
*1489 FILLER_0_203
*1490 FILLER_0_21
*1491 FILLER_0_210
*1492 FILLER_0_217
*1493 FILLER_0_224
*1494 FILLER_0_231
*1495 FILLER_0_238
*1496 FILLER_0_245
*1497 FILLER_0_252
*1498 FILLER_0_259
*1499 FILLER_0_266
*1500 FILLER_0_273
*1501 FILLER_0_28
*1502 FILLER_0_280
*1503 FILLER_0_287
*1504 FILLER_0_294
*1505 FILLER_0_301
*1506 FILLER_0_308
*1507 FILLER_0_315
*1508 FILLER_0_322
*1509 FILLER_0_329
*1510 FILLER_0_336
*1511 FILLER_0_343
*1512 FILLER_0_35
*1513 FILLER_0_350
*1514 FILLER_0_357
*1515 FILLER_0_364
*1516 FILLER_0_371
*1517 FILLER_0_378
*1518 FILLER_0_385
*1519 FILLER_0_392
*1520 FILLER_0_399
*1521 FILLER_0_406
*1522 FILLER_0_413
*1523 FILLER_0_42
*1524 FILLER_0_420
*1525 FILLER_0_427
*1526 FILLER_0_434
*1527 FILLER_0_441
*1528 FILLER_0_448
*1529 FILLER_0_455
*1530 FILLER_0_462
*1531 FILLER_0_469
*1532 FILLER_0_476
*1533 FILLER_0_483
*1534 FILLER_0_49
*1535 FILLER_0_490
*1536 FILLER_0_497
*1537 FILLER_0_504
*1538 FILLER_0_511
*1539 FILLER_0_518
*1540 FILLER_0_525
*1541 FILLER_0_532
*1542 FILLER_0_539
*1543 FILLER_0_546
*1544 FILLER_0_553
*1545 FILLER_0_56
*1546 FILLER_0_560
*1547 FILLER_0_567
*1548 FILLER_0_574
*1549 FILLER_0_581
*1550 FILLER_0_588
*1551 FILLER_0_595
*1552 FILLER_0_602
*1553 FILLER_0_609
*1554 FILLER_0_613
*1555 FILLER_0_63
*1556 FILLER_0_644
*1557 FILLER_0_650
*1558 FILLER_0_657
*1559 FILLER_0_664
*1560 FILLER_0_671
*1561 FILLER_0_678
*1562 FILLER_0_685
*1563 FILLER_0_7
*1564 FILLER_0_70
*1565 FILLER_0_716
*1566 FILLER_0_77
*1567 FILLER_0_783
*1568 FILLER_0_822
*1569 FILLER_0_84
*1570 FILLER_0_91
*1571 FILLER_0_98
*1572 FILLER_10_102
*1573 FILLER_10_109
*1574 FILLER_10_11
*1575 FILLER_10_116
*1576 FILLER_10_123
*1577 FILLER_10_130
*1578 FILLER_10_137
*1579 FILLER_10_144
*1580 FILLER_10_151
*1581 FILLER_10_158
*1582 FILLER_10_165
*1583 FILLER_10_172
*1584 FILLER_10_179
*1585 FILLER_10_18
*1586 FILLER_10_186
*1587 FILLER_10_193
*1588 FILLER_10_200
*1589 FILLER_10_207
*1590 FILLER_10_214
*1591 FILLER_10_221
*1592 FILLER_10_228
*1593 FILLER_10_235
*1594 FILLER_10_242
*1595 FILLER_10_249
*1596 FILLER_10_25
*1597 FILLER_10_256
*1598 FILLER_10_263
*1599 FILLER_10_270
*1600 FILLER_10_277
*1601 FILLER_10_284
*1602 FILLER_10_291
*1603 FILLER_10_298
*1604 FILLER_10_305
*1605 FILLER_10_312
*1606 FILLER_10_319
*1607 FILLER_10_32
*1608 FILLER_10_326
*1609 FILLER_10_333
*1610 FILLER_10_340
*1611 FILLER_10_347
*1612 FILLER_10_354
*1613 FILLER_10_361
*1614 FILLER_10_368
*1615 FILLER_10_375
*1616 FILLER_10_382
*1617 FILLER_10_389
*1618 FILLER_10_39
*1619 FILLER_10_396
*1620 FILLER_10_4
*1621 FILLER_10_403
*1622 FILLER_10_410
*1623 FILLER_10_417
*1624 FILLER_10_424
*1625 FILLER_10_431
*1626 FILLER_10_438
*1627 FILLER_10_445
*1628 FILLER_10_452
*1629 FILLER_10_46
*1630 FILLER_10_471
*1631 FILLER_10_478
*1632 FILLER_10_485
*1633 FILLER_10_487
*1634 FILLER_10_493
*1635 FILLER_10_509
*1636 FILLER_10_525
*1637 FILLER_10_53
*1638 FILLER_10_551
*1639 FILLER_10_558
*1640 FILLER_10_60
*1641 FILLER_10_600
*1642 FILLER_10_602
*1643 FILLER_10_614
*1644 FILLER_10_643
*1645 FILLER_10_647
*1646 FILLER_10_654
*1647 FILLER_10_667
*1648 FILLER_10_67
*1649 FILLER_10_674
*1650 FILLER_10_678
*1651 FILLER_10_718
*1652 FILLER_10_74
*1653 FILLER_10_746
*1654 FILLER_10_755
*1655 FILLER_10_762
*1656 FILLER_10_768
*1657 FILLER_10_772
*1658 FILLER_10_779
*1659 FILLER_10_786
*1660 FILLER_10_81
*1661 FILLER_10_821
*1662 FILLER_10_88
*1663 FILLER_10_95
*1664 FILLER_11_102
*1665 FILLER_11_109
*1666 FILLER_11_11
*1667 FILLER_11_116
*1668 FILLER_11_123
*1669 FILLER_11_130
*1670 FILLER_11_137
*1671 FILLER_11_144
*1672 FILLER_11_151
*1673 FILLER_11_158
*1674 FILLER_11_165
*1675 FILLER_11_172
*1676 FILLER_11_179
*1677 FILLER_11_18
*1678 FILLER_11_186
*1679 FILLER_11_193
*1680 FILLER_11_200
*1681 FILLER_11_207
*1682 FILLER_11_214
*1683 FILLER_11_221
*1684 FILLER_11_228
*1685 FILLER_11_235
*1686 FILLER_11_242
*1687 FILLER_11_249
*1688 FILLER_11_25
*1689 FILLER_11_256
*1690 FILLER_11_263
*1691 FILLER_11_270
*1692 FILLER_11_277
*1693 FILLER_11_284
*1694 FILLER_11_291
*1695 FILLER_11_298
*1696 FILLER_11_305
*1697 FILLER_11_312
*1698 FILLER_11_319
*1699 FILLER_11_32
*1700 FILLER_11_326
*1701 FILLER_11_333
*1702 FILLER_11_340
*1703 FILLER_11_347
*1704 FILLER_11_354
*1705 FILLER_11_361
*1706 FILLER_11_368
*1707 FILLER_11_375
*1708 FILLER_11_382
*1709 FILLER_11_389
*1710 FILLER_11_39
*1711 FILLER_11_396
*1712 FILLER_11_4
*1713 FILLER_11_403
*1714 FILLER_11_410
*1715 FILLER_11_417
*1716 FILLER_11_424
*1717 FILLER_11_431
*1718 FILLER_11_435
*1719 FILLER_11_46
*1720 FILLER_11_464
*1721 FILLER_11_469
*1722 FILLER_11_483
*1723 FILLER_11_487
*1724 FILLER_11_499
*1725 FILLER_11_53
*1726 FILLER_11_543
*1727 FILLER_11_577
*1728 FILLER_11_582
*1729 FILLER_11_586
*1730 FILLER_11_60
*1731 FILLER_11_615
*1732 FILLER_11_623
*1733 FILLER_11_634
*1734 FILLER_11_641
*1735 FILLER_11_645
*1736 FILLER_11_67
*1737 FILLER_11_687
*1738 FILLER_11_694
*1739 FILLER_11_731
*1740 FILLER_11_738
*1741 FILLER_11_74
*1742 FILLER_11_742
*1743 FILLER_11_765
*1744 FILLER_11_772
*1745 FILLER_11_776
*1746 FILLER_11_81
*1747 FILLER_11_814
*1748 FILLER_11_821
*1749 FILLER_11_88
*1750 FILLER_11_95
*1751 FILLER_12_104
*1752 FILLER_12_111
*1753 FILLER_12_118
*1754 FILLER_12_125
*1755 FILLER_12_13
*1756 FILLER_12_132
*1757 FILLER_12_139
*1758 FILLER_12_146
*1759 FILLER_12_153
*1760 FILLER_12_160
*1761 FILLER_12_167
*1762 FILLER_12_174
*1763 FILLER_12_181
*1764 FILLER_12_188
*1765 FILLER_12_195
*1766 FILLER_12_20
*1767 FILLER_12_202
*1768 FILLER_12_209
*1769 FILLER_12_216
*1770 FILLER_12_223
*1771 FILLER_12_230
*1772 FILLER_12_237
*1773 FILLER_12_244
*1774 FILLER_12_251
*1775 FILLER_12_258
*1776 FILLER_12_265
*1777 FILLER_12_27
*1778 FILLER_12_272
*1779 FILLER_12_279
*1780 FILLER_12_286
*1781 FILLER_12_293
*1782 FILLER_12_300
*1783 FILLER_12_307
*1784 FILLER_12_314
*1785 FILLER_12_321
*1786 FILLER_12_328
*1787 FILLER_12_335
*1788 FILLER_12_34
*1789 FILLER_12_342
*1790 FILLER_12_349
*1791 FILLER_12_356
*1792 FILLER_12_363
*1793 FILLER_12_370
*1794 FILLER_12_377
*1795 FILLER_12_384
*1796 FILLER_12_391
*1797 FILLER_12_398
*1798 FILLER_12_4
*1799 FILLER_12_405
*1800 FILLER_12_41
*1801 FILLER_12_412
*1802 FILLER_12_419
*1803 FILLER_12_426
*1804 FILLER_12_433
*1805 FILLER_12_440
*1806 FILLER_12_448
*1807 FILLER_12_452
*1808 FILLER_12_456
*1809 FILLER_12_48
*1810 FILLER_12_520
*1811 FILLER_12_531
*1812 FILLER_12_55
*1813 FILLER_12_559
*1814 FILLER_12_563
*1815 FILLER_12_581
*1816 FILLER_12_588
*1817 FILLER_12_595
*1818 FILLER_12_62
*1819 FILLER_12_622
*1820 FILLER_12_624
*1821 FILLER_12_655
*1822 FILLER_12_662
*1823 FILLER_12_664
*1824 FILLER_12_672
*1825 FILLER_12_679
*1826 FILLER_12_686
*1827 FILLER_12_69
*1828 FILLER_12_690
*1829 FILLER_12_697
*1830 FILLER_12_709
*1831 FILLER_12_711
*1832 FILLER_12_728
*1833 FILLER_12_735
*1834 FILLER_12_739
*1835 FILLER_12_751
*1836 FILLER_12_76
*1837 FILLER_12_779
*1838 FILLER_12_786
*1839 FILLER_12_8
*1840 FILLER_12_809
*1841 FILLER_12_816
*1842 FILLER_12_83
*1843 FILLER_12_90
*1844 FILLER_12_97
*1845 FILLER_13_102
*1846 FILLER_13_109
*1847 FILLER_13_11
*1848 FILLER_13_116
*1849 FILLER_13_123
*1850 FILLER_13_130
*1851 FILLER_13_137
*1852 FILLER_13_144
*1853 FILLER_13_151
*1854 FILLER_13_158
*1855 FILLER_13_165
*1856 FILLER_13_172
*1857 FILLER_13_179
*1858 FILLER_13_18
*1859 FILLER_13_186
*1860 FILLER_13_193
*1861 FILLER_13_200
*1862 FILLER_13_207
*1863 FILLER_13_214
*1864 FILLER_13_221
*1865 FILLER_13_228
*1866 FILLER_13_235
*1867 FILLER_13_242
*1868 FILLER_13_249
*1869 FILLER_13_25
*1870 FILLER_13_256
*1871 FILLER_13_263
*1872 FILLER_13_270
*1873 FILLER_13_277
*1874 FILLER_13_284
*1875 FILLER_13_291
*1876 FILLER_13_298
*1877 FILLER_13_305
*1878 FILLER_13_312
*1879 FILLER_13_319
*1880 FILLER_13_32
*1881 FILLER_13_326
*1882 FILLER_13_333
*1883 FILLER_13_340
*1884 FILLER_13_347
*1885 FILLER_13_354
*1886 FILLER_13_361
*1887 FILLER_13_368
*1888 FILLER_13_375
*1889 FILLER_13_382
*1890 FILLER_13_389
*1891 FILLER_13_39
*1892 FILLER_13_396
*1893 FILLER_13_4
*1894 FILLER_13_403
*1895 FILLER_13_410
*1896 FILLER_13_417
*1897 FILLER_13_424
*1898 FILLER_13_431
*1899 FILLER_13_435
*1900 FILLER_13_458
*1901 FILLER_13_46
*1902 FILLER_13_465
*1903 FILLER_13_478
*1904 FILLER_13_485
*1905 FILLER_13_492
*1906 FILLER_13_499
*1907 FILLER_13_506
*1908 FILLER_13_510
*1909 FILLER_13_527
*1910 FILLER_13_53
*1911 FILLER_13_546
*1912 FILLER_13_553
*1913 FILLER_13_560
*1914 FILLER_13_567
*1915 FILLER_13_573
*1916 FILLER_13_60
*1917 FILLER_13_606
*1918 FILLER_13_634
*1919 FILLER_13_659
*1920 FILLER_13_666
*1921 FILLER_13_67
*1922 FILLER_13_702
*1923 FILLER_13_713
*1924 FILLER_13_720
*1925 FILLER_13_74
*1926 FILLER_13_749
*1927 FILLER_13_756
*1928 FILLER_13_761
*1929 FILLER_13_767
*1930 FILLER_13_808
*1931 FILLER_13_81
*1932 FILLER_13_815
*1933 FILLER_13_822
*1934 FILLER_13_88
*1935 FILLER_13_95
*1936 FILLER_14_104
*1937 FILLER_14_111
*1938 FILLER_14_118
*1939 FILLER_14_125
*1940 FILLER_14_13
*1941 FILLER_14_132
*1942 FILLER_14_139
*1943 FILLER_14_146