*SPEF "ieee 1481-1999"
*DESIGN "heichips25_pudding"
*DATE "20:25:45 Thursday March 12, 2026"
*VENDOR "The OpenROAD Project"
*PROGRAM "OpenROAD"
*VERSION "dfc4f595dfb2e1c346492ff1f0274abb28725acf"
*DESIGN_FLOW "NAME_SCOPE LOCAL" "PIN_CAP NONE"
*DIVIDER /
*DELIMITER :
*BUS_DELIMITER []
*T_UNIT 1 NS
*C_UNIT 1 PF
*R_UNIT 1 OHM
*L_UNIT 1 HENRY

*NAME_MAP
*3 clk
*4 ena
*5 i_in
*6 i_out
*7 rst_n
*8 ui_in[0]
*9 ui_in[1]
*10 ui_in[2]
*11 ui_in[3]
*12 ui_in[4]
*13 ui_in[5]
*14 ui_in[6]
*15 ui_in[7]
*16 uio_in[0]
*17 uio_in[1]
*18 uio_in[2]
*19 uio_in[3]
*20 uio_in[4]
*21 uio_in[5]
*22 uio_in[6]
*23 uio_in[7]
*24 net
*25 net124
*26 net125
*27 net126
*28 net127
*29 net128
*30 net129
*31 net130
*32 uio_out[0]
*33 uio_out[1]
*34 uio_out[2]
*35 uio_out[3]
*36 uio_out[4]
*37 uio_out[5]
*38 uio_out[6]
*39 uio_out[7]
*40 uo_out[0]
*41 uo_out[1]
*42 uo_out[2]
*43 uo_out[3]
*44 uo_out[4]
*45 uo_out[5]
*46 uo_out[6]
*47 uo_out[7]
*48 _0000_
*49 _0001_
*50 _0002_
*51 _0003_
*52 _0004_
*53 _0005_
*54 _0006_
*55 _0007_
*56 _0008_
*57 _0009_
*58 _0010_
*59 _0011_
*60 _0012_
*61 _0013_
*62 _0014_
*63 _0015_
*64 _0016_
*65 _0017_
*66 _0018_
*67 _0019_
*68 _0020_
*69 _0021_
*70 _0022_
*71 _0023_
*72 _0024_
*73 _0025_
*74 _0026_
*75 _0027_
*76 _0028_
*77 _0029_
*78 _0030_
*79 _0031_
*80 _0032_
*81 _0033_
*82 _0034_
*83 _0035_
*84 _0036_
*85 _0037_
*86 _0038_
*87 _0039_
*88 _0040_
*89 _0041_
*90 _0042_
*91 _0043_
*92 _0044_
*93 _0045_
*94 _0046_
*95 _0047_
*96 _0048_
*97 _0049_
*98 _0050_
*99 _0051_
*100 _0052_
*101 _0053_
*102 _0054_
*103 _0055_
*104 _0056_
*105 _0057_
*106 _0058_
*107 _0059_
*108 _0060_
*109 _0061_
*110 _0062_
*111 _0063_
*112 _0064_
*113 _0065_
*114 _0066_
*115 _0067_
*116 _0068_
*117 _0069_
*118 _0070_
*119 _0071_
*120 _0072_
*121 _0073_
*122 _0074_
*123 _0075_
*124 _0076_
*125 _0077_
*126 _0078_
*127 _0079_
*128 _0080_
*129 _0081_
*130 _0082_
*131 _0083_
*132 _0084_
*133 _0085_
*134 _0086_
*135 _0087_
*136 _0088_
*137 _0089_
*138 _0090_
*139 _0091_
*140 _0092_
*141 _0093_
*142 _0094_
*143 _0095_
*144 _0096_
*145 _0097_
*146 _0098_
*147 _0099_
*148 _0100_
*149 _0101_
*150 _0102_
*151 _0103_
*152 _0104_
*153 _0105_
*154 _0106_
*155 _0107_
*156 _0108_
*157 _0109_
*158 _0110_
*159 _0111_
*160 _0112_
*161 _0113_
*162 _0114_
*163 _0115_
*164 _0116_
*165 _0117_
*166 _0118_
*167 _0119_
*168 _0120_
*169 _0121_
*170 _0122_
*171 _0123_
*172 _0124_
*173 _0125_
*174 _0126_
*175 _0127_
*176 _0128_
*177 _0129_
*178 _0130_
*179 _0131_
*180 _0132_
*181 _0133_
*182 _0134_
*183 _0135_
*184 _0136_
*185 _0137_
*186 _0138_
*187 _0139_
*188 _0140_
*189 _0141_
*190 _0142_
*191 _0143_
*192 _0144_
*193 _0145_
*194 _0146_
*195 _0147_
*196 _0148_
*197 _0149_
*198 _0150_
*199 _0151_
*200 _0152_
*201 _0153_
*202 _0154_
*203 _0155_
*204 _0156_
*205 _0157_
*206 _0158_
*207 _0159_
*208 _0160_
*209 _0161_
*210 _0162_
*211 _0163_
*212 _0164_
*213 _0165_
*214 _0166_
*215 _0167_
*216 _0168_
*217 _0169_
*218 _0170_
*219 _0171_
*220 _0172_
*221 _0173_
*222 _0174_
*223 _0175_
*224 _0176_
*225 _0177_
*226 _0178_
*227 _0179_
*228 _0180_
*229 _0181_
*230 _0182_
*231 _0183_
*232 _0184_
*233 _0185_
*234 _0186_
*235 _0187_
*236 _0188_
*237 _0189_
*238 _0190_
*239 _0191_
*240 _0192_
*241 _0193_
*242 _0194_
*243 _0195_
*244 _0196_
*245 _0197_
*246 _0198_
*247 _0199_
*248 _0200_
*249 _0201_
*250 _0202_
*251 _0203_
*252 _0204_
*253 _0205_
*254 _0206_
*255 _0207_
*256 _0208_
*257 _0209_
*258 _0210_
*259 _0211_
*260 _0212_
*261 _0213_
*262 _0214_
*263 _0215_
*264 _0216_
*265 _0217_
*266 _0218_
*267 _0219_
*268 _0220_
*269 _0221_
*270 _0222_
*271 _0223_
*272 _0224_
*273 _0225_
*274 _0226_
*275 _0227_
*276 _0228_
*277 _0229_
*278 _0230_
*279 _0231_
*280 _0232_
*281 _0233_
*282 _0234_
*283 _0235_
*284 _0236_
*285 _0237_
*286 _0238_
*287 _0239_
*288 _0240_
*289 _0241_
*290 _0242_
*291 _0243_
*292 _0244_
*293 _0245_
*294 _0246_
*295 _0247_
*296 _0248_
*297 _0249_
*298 _0250_
*299 _0251_
*300 _0252_
*301 _0253_
*302 _0254_
*303 _0255_
*304 _0256_
*305 _0257_
*306 _0258_
*307 _0259_
*308 _0260_
*309 _0261_
*310 _0262_
*311 _0263_
*312 _0264_
*313 _0265_
*314 _0266_
*315 _0267_
*316 _0268_
*317 _0269_
*318 _0270_
*319 _0271_
*320 _0272_
*321 _0273_
*322 _0274_
*323 _0275_
*324 _0276_
*325 _0277_
*326 _0278_
*327 _0279_
*328 _0280_
*329 _0281_
*330 _0282_
*331 _0283_
*332 _0284_
*333 _0285_
*334 _0286_
*335 _0287_
*336 _0288_
*337 _0289_
*338 _0290_
*339 _0291_
*340 _0292_
*341 _0293_
*342 _0294_
*343 _0295_
*344 _0296_
*345 _0297_
*346 _0298_
*347 _0299_
*348 _0300_
*349 _0301_
*350 _0302_
*351 _0303_
*352 _0304_
*353 _0305_
*354 _0306_
*355 _0307_
*356 _0308_
*357 _0309_
*358 _0310_
*359 _0311_
*360 _0312_
*361 _0313_
*362 _0314_
*363 _0315_
*364 _0316_
*365 _0317_
*366 _0318_
*367 _0319_
*368 _0320_
*369 _0321_
*370 _0322_
*371 _0323_
*372 _0324_
*373 _0325_
*374 _0326_
*375 _0327_
*376 _0328_
*377 _0329_
*378 _0330_
*379 _0331_
*380 _0332_
*381 _0333_
*382 _0334_
*383 _0335_
*384 _0336_
*385 _0337_
*386 _0338_
*387 _0339_
*388 _0340_
*389 _0341_
*390 _0342_
*391 _0343_
*392 _0344_
*393 _0345_
*394 _0346_
*395 _0347_
*396 _0348_
*397 _0349_
*398 _0350_
*399 _0351_
*400 _0352_
*401 _0353_
*402 _0354_
*403 _0355_
*404 _0356_
*405 _0357_
*406 _0358_
*407 _0359_
*408 _0360_
*409 _0361_
*410 _0362_
*411 _0363_
*412 _0364_
*413 _0365_
*414 _0366_
*415 _0367_
*416 _0368_
*417 _0369_
*418 _0370_
*419 _0371_
*420 _0372_
*421 _0373_
*422 _0374_
*423 _0375_
*424 _0376_
*425 _0377_
*426 _0378_
*427 _0379_
*428 _0380_
*429 _0381_
*430 _0382_
*431 _0383_
*432 _0384_
*433 _0385_
*434 _0386_
*435 _0387_
*436 _0388_
*437 _0389_
*438 _0390_
*439 _0391_
*440 _0392_
*441 _0393_
*442 _0394_
*443 _0395_
*444 _0396_
*445 _0397_
*446 _0398_
*447 _0399_
*448 _0400_
*449 _0401_
*450 _0402_
*451 _0403_
*452 _0404_
*453 _0405_
*454 _0406_
*455 _0407_
*456 _0408_
*457 _0409_
*458 _0410_
*459 _0411_
*460 _0412_
*461 _0413_
*462 _0414_
*463 _0415_
*464 _0416_
*465 _0417_
*466 _0418_
*467 _0419_
*468 _0420_
*469 _0421_
*470 _0422_
*471 _0423_
*472 _0424_
*473 _0425_
*474 _0426_
*475 _0427_
*476 _0428_
*477 _0429_
*478 _0430_
*479 _0431_
*480 _0432_
*481 _0433_
*482 _0434_
*483 _0435_
*484 _0436_
*485 _0437_
*486 _0438_
*487 _0439_
*488 _0440_
*489 _0441_
*490 _0442_
*491 _0443_
*492 _0444_
*493 _0445_
*494 _0446_
*495 _0447_
*496 _0448_
*497 _0449_
*498 _0450_
*499 _0451_
*500 bias\[0\]
*501 bias\[1\]
*502 bias\[2\]
*503 bias\[3\]
*504 clknet_0_clk
*505 clknet_4_0_0_clk
*506 clknet_4_10_0_clk
*507 clknet_4_11_0_clk
*508 clknet_4_12_0_clk
*509 clknet_4_13_0_clk
*510 clknet_4_14_0_clk
*511 clknet_4_15_0_clk
*512 clknet_4_1_0_clk
*513 clknet_4_2_0_clk
*514 clknet_4_3_0_clk
*515 clknet_4_4_0_clk
*516 clknet_4_5_0_clk
*517 clknet_4_6_0_clk
*518 clknet_4_7_0_clk
*519 clknet_4_8_0_clk
*520 clknet_4_9_0_clk
*521 clknet_5_0__leaf_clk
*522 clknet_5_10__leaf_clk
*523 clknet_5_11__leaf_clk
*524 clknet_5_12__leaf_clk
*525 clknet_5_13__leaf_clk
*526 clknet_5_14__leaf_clk
*527 clknet_5_15__leaf_clk
*528 clknet_5_16__leaf_clk
*529 clknet_5_17__leaf_clk
*530 clknet_5_18__leaf_clk
*531 clknet_5_19__leaf_clk
*532 clknet_5_1__leaf_clk
*533 clknet_5_20__leaf_clk
*534 clknet_5_21__leaf_clk
*535 clknet_5_22__leaf_clk
*536 clknet_5_23__leaf_clk
*537 clknet_5_24__leaf_clk
*538 clknet_5_25__leaf_clk
*539 clknet_5_26__leaf_clk
*540 clknet_5_27__leaf_clk
*541 clknet_5_28__leaf_clk
*542 clknet_5_29__leaf_clk
*543 clknet_5_2__leaf_clk
*544 clknet_5_30__leaf_clk
*545 clknet_5_31__leaf_clk
*546 clknet_5_3__leaf_clk
*547 clknet_5_4__leaf_clk
*548 clknet_5_5__leaf_clk
*549 clknet_5_6__leaf_clk
*550 clknet_5_7__leaf_clk
*551 clknet_5_8__leaf_clk
*552 clknet_5_9__leaf_clk
*553 dacout\[0\]
*554 dacout\[1\]
*555 daisychain\[0\]
*556 daisychain\[10\]
*557 daisychain\[11\]
*558 daisychain\[12\]
*559 daisychain\[13\]
*560 daisychain\[14\]
*561 daisychain\[15\]
*562 daisychain\[16\]
*563 daisychain\[17\]
*564 daisychain\[18\]
*565 daisychain\[19\]
*566 daisychain\[1\]
*567 daisychain\[20\]
*568 daisychain\[21\]
*569 daisychain\[22\]
*570 daisychain\[23\]
*571 daisychain\[24\]
*572 daisychain\[25\]
*573 daisychain\[26\]
*574 daisychain\[27\]
*575 daisychain\[28\]
*576 daisychain\[29\]
*577 daisychain\[2\]
*578 daisychain\[30\]
*579 daisychain\[31\]
*580 daisychain\[32\]
*581 daisychain\[33\]
*582 daisychain\[34\]
*583 daisychain\[35\]
*584 daisychain\[36\]
*585 daisychain\[37\]
*586 daisychain\[38\]
*587 daisychain\[39\]
*588 daisychain\[3\]
*589 daisychain\[40\]
*590 daisychain\[41\]
*591 daisychain\[42\]
*592 daisychain\[43\]
*593 daisychain\[44\]
*594 daisychain\[45\]
*595 daisychain\[46\]
*596 daisychain\[47\]
*597 daisychain\[48\]
*598 daisychain\[49\]
*599 daisychain\[4\]
*600 daisychain\[50\]
*601 daisychain\[51\]
*602 daisychain\[52\]
*603 daisychain\[53\]
*604 daisychain\[54\]
*605 daisychain\[55\]
*606 daisychain\[56\]
*607 daisychain\[57\]
*608 daisychain\[58\]
*609 daisychain\[59\]
*610 daisychain\[5\]
*611 daisychain\[60\]
*612 daisychain\[61\]
*613 daisychain\[62\]
*614 daisychain\[63\]
*615 daisychain\[6\]
*616 daisychain\[7\]
*617 daisychain\[8\]
*618 daisychain\[9\]
*619 digitalen\.g\[0\]\.u\.OUTN
*620 digitalen\.g\[0\]\.u\.OUTP
*621 digitalen\.g\[1\]\.u\.OUTN
*622 digitalen\.g\[1\]\.u\.OUTP
*623 digitalen\.g\[2\]\.u\.OUTN
*624 digitalen\.g\[2\]\.u\.OUTP
*625 digitalen\.g\[3\]\.u\.OUTN
*626 digitalen\.g\[3\]\.u\.OUTP
*627 iref\[0\]
*628 iref\[1\]
*629 iref\[2\]
*630 iref\[3\]
*631 net1
*632 net10
*633 net100
*634 net101
*635 net102
*636 net103
*637 net104
*638 net105
*639 net106
*640 net107
*641 net108
*642 net109
*643 net11
*644 net110
*645 net111
*646 net112
*647 net113
*648 net114
*649 net115
*650 net116
*651 net117
*652 net118
*653 net119
*654 net12
*655 net120
*656 net121
*657 net122
*658 net123
*659 net13
*660 net14
*661 net15
*662 net16
*663 net17
*664 net18
*665 net19
*666 net2
*667 net20
*668 net21
*669 net22
*670 net23
*671 net24
*672 net25
*673 net26
*674 net27
*675 net28
*676 net29
*677 net3
*678 net30
*679 net31
*680 net32
*681 net33
*682 net34
*683 net35
*684 net36
*685 net37
*686 net38
*687 net39
*688 net4
*689 net40
*690 net41
*691 net42
*692 net43
*693 net44
*694 net45
*695 net46
*696 net47
*697 net48
*698 net49
*699 net5
*700 net50
*701 net51
*702 net52
*703 net53
*704 net54
*705 net55
*706 net56
*707 net57
*708 net58
*709 net59
*710 net6
*711 net60
*712 net61
*713 net62
*714 net63
*715 net64
*716 net65
*717 net66
*718 net67
*719 net68
*720 net69
*721 net7
*722 net70
*723 net71
*724 net72
*725 net73
*726 net74
*727 net75
*728 net76
*729 net77
*730 net78
*731 net79
*732 net8
*733 net80
*734 net81
*735 net82
*736 net83
*737 net84
*738 net85
*739 net86
*740 net87
*741 net88
*742 net89
*743 net9
*744 net90
*745 net91
*746 net92
*747 net93
*748 net94
*749 net95
*750 net96
*751 net97
*752 net98
*753 net99
*754 state\[0\]
*755 state\[10\]
*756 state\[11\]
*757 state\[12\]
*758 state\[13\]
*759 state\[14\]
*760 state\[15\]
*761 state\[16\]
*762 state\[17\]
*763 state\[18\]
*764 state\[19\]
*765 state\[1\]
*766 state\[20\]
*767 state\[21\]
*768 state\[22\]
*769 state\[23\]
*770 state\[24\]
*771 state\[25\]
*772 state\[26\]
*773 state\[27\]
*774 state\[28\]
*775 state\[29\]
*776 state\[2\]
*777 state\[30\]
*778 state\[31\]
*779 state\[32\]
*780 state\[33\]
*781 state\[34\]
*782 state\[35\]
*783 state\[36\]
*784 state\[37\]
*785 state\[38\]
*786 state\[39\]
*787 state\[3\]
*788 state\[40\]
*789 state\[41\]
*790 state\[42\]
*791 state\[43\]
*792 state\[44\]
*793 state\[45\]
*794 state\[46\]
*795 state\[47\]
*796 state\[48\]
*797 state\[49\]
*798 state\[4\]
*799 state\[50\]
*800 state\[51\]
*801 state\[52\]
*802 state\[53\]
*803 state\[54\]
*804 state\[55\]
*805 state\[56\]
*806 state\[57\]
*807 state\[58\]
*808 state\[59\]
*809 state\[5\]
*810 state\[60\]
*811 state\[61\]
*812 state\[62\]
*813 state\[63\]
*814 state\[6\]
*815 state\[7\]
*816 state\[8\]
*817 state\[9\]
*818 vdda\[0\]
*819 vdda\[1\]
*820 vdda\[2\]
*821 vdda\[3\]
*822 ANTENNA_1
*823 ANTENNA_2
*824 ANTENNA_3
*825 ANTENNA_4
*826 ANTENNA_5
*827 ANTENNA_6
*828 FILLER_0_0
*829 FILLER_0_105
*830 FILLER_0_112
*831 FILLER_0_119
*832 FILLER_0_126
*833 FILLER_0_133
*834 FILLER_0_14
*835 FILLER_0_140
*836 FILLER_0_147
*837 FILLER_0_154
*838 FILLER_0_161
*839 FILLER_0_168
*840 FILLER_0_175
*841 FILLER_0_182
*842 FILLER_0_189
*843 FILLER_0_196
*844 FILLER_0_203
*845 FILLER_0_21
*846 FILLER_0_210
*847 FILLER_0_217
*848 FILLER_0_224
*849 FILLER_0_231
*850 FILLER_0_238
*851 FILLER_0_245
*852 FILLER_0_252
*853 FILLER_0_259
*854 FILLER_0_266
*855 FILLER_0_273
*856 FILLER_0_28
*857 FILLER_0_280
*858 FILLER_0_287
*859 FILLER_0_294
*860 FILLER_0_301
*861 FILLER_0_308
*862 FILLER_0_315
*863 FILLER_0_322
*864 FILLER_0_329
*865 FILLER_0_336
*866 FILLER_0_343
*867 FILLER_0_35
*868 FILLER_0_350
*869 FILLER_0_357
*870 FILLER_0_364
*871 FILLER_0_371
*872 FILLER_0_378
*873 FILLER_0_385
*874 FILLER_0_392
*875 FILLER_0_399
*876 FILLER_0_406
*877 FILLER_0_413
*878 FILLER_0_42
*879 FILLER_0_420
*880 FILLER_0_427
*881 FILLER_0_434
*882 FILLER_0_441
*883 FILLER_0_448
*884 FILLER_0_455
*885 FILLER_0_462
*886 FILLER_0_469
*887 FILLER_0_476
*888 FILLER_0_483
*889 FILLER_0_49
*890 FILLER_0_490
*891 FILLER_0_497
*892 FILLER_0_504
*893 FILLER_0_511
*894 FILLER_0_518
*895 FILLER_0_525
*896 FILLER_0_532
*897 FILLER_0_539
*898 FILLER_0_546
*899 FILLER_0_553
*900 FILLER_0_56
*901 FILLER_0_560
*902 FILLER_0_567
*903 FILLER_0_574
*904 FILLER_0_581
*905 FILLER_0_588
*906 FILLER_0_595
*907 FILLER_0_602
*908 FILLER_0_609
*909 FILLER_0_616
*910 FILLER_0_623
*911 FILLER_0_63
*912 FILLER_0_630
*913 FILLER_0_637
*914 FILLER_0_644
*915 FILLER_0_651
*916 FILLER_0_658
*917 FILLER_0_665
*918 FILLER_0_672
*919 FILLER_0_679
*920 FILLER_0_686
*921 FILLER_0_693
*922 FILLER_0_7
*923 FILLER_0_70
*924 FILLER_0_700
*925 FILLER_0_707
*926 FILLER_0_714
*927 FILLER_0_724
*928 FILLER_0_739
*929 FILLER_0_746
*930 FILLER_0_753
*931 FILLER_0_765
*932 FILLER_0_77
*933 FILLER_0_772
*934 FILLER_0_774
*935 FILLER_0_778
*936 FILLER_0_782
*937 FILLER_0_789
*938 FILLER_0_796
*939 FILLER_0_803
*940 FILLER_0_810
*941 FILLER_0_817
*942 FILLER_0_821
*943 FILLER_0_84
*944 FILLER_0_91
*945 FILLER_0_98
*946 FILLER_10_102
*947 FILLER_10_109
*948 FILLER_10_11
*949 FILLER_10_116
*950 FILLER_10_123
*951 FILLER_10_130
*952 FILLER_10_137
*953 FILLER_10_144
*954 FILLER_10_151
*955 FILLER_10_158
*956 FILLER_10_165
*957 FILLER_10_172
*958 FILLER_10_179
*959 FILLER_10_18
*960 FILLER_10_186
*961 FILLER_10_193
*962 FILLER_10_200
*963 FILLER_10_207
*964 FILLER_10_214
*965 FILLER_10_221
*966 FILLER_10_228
*967 FILLER_10_235
*968 FILLER_10_242
*969 FILLER_10_249
*970 FILLER_10_25
*971 FILLER_10_256
*972 FILLER_10_263
*973 FILLER_10_270
*974 FILLER_10_277
*975 FILLER_10_284
*976 FILLER_10_291
*977 FILLER_10_298
*978 FILLER_10_305
*979 FILLER_10_312
*980 FILLER_10_319
*981 FILLER_10_32
*982 FILLER_10_326
*983 FILLER_10_333
*984 FILLER_10_340
*985 FILLER_10_347
*986 FILLER_10_354
*987 FILLER_10_361
*988 FILLER_10_368
*989 FILLER_10_375
*990 FILLER_10_382
*991 FILLER_10_389
*992 FILLER_10_39
*993 FILLER_10_396
*994 FILLER_10_4
*995 FILLER_10_403
*996 FILLER_10_410
*997 FILLER_10_417
*998 FILLER_10_424
*999 FILLER_10_431
*1000 FILLER_10_438
*1001 FILLER_10_445
*1002 FILLER_10_452
*1003 FILLER_10_459
*1004 FILLER_10_46
*1005 FILLER_10_466
*1006 FILLER_10_473
*1007 FILLER_10_480
*1008 FILLER_10_487
*1009 FILLER_10_494
*1010 FILLER_10_501
*1011 FILLER_10_508
*1012 FILLER_10_515
*1013 FILLER_10_522
*1014 FILLER_10_529
*1015 FILLER_10_53
*1016 FILLER_10_536
*1017 FILLER_10_543
*1018 FILLER_10_550
*1019 FILLER_10_557
*1020 FILLER_10_564
*1021 FILLER_10_571
*1022 FILLER_10_60
*1023 FILLER_10_605
*1024 FILLER_10_612
*1025 FILLER_10_653
*1026 FILLER_10_666
*1027 FILLER_10_67
*1028 FILLER_10_697
*1029 FILLER_10_74
*1030 FILLER_10_81
*1031 FILLER_10_88
*1032 FILLER_10_95
*1033 FILLER_11_102
*1034 FILLER_11_109
*1035 FILLER_11_11
*1036 FILLER_11_116
*1037 FILLER_11_123
*1038 FILLER_11_130
*1039 FILLER_11_137
*1040 FILLER_11_144
*1041 FILLER_11_151
*1042 FILLER_11_158
*1043 FILLER_11_165
*1044 FILLER_11_172
*1045 FILLER_11_179
*1046 FILLER_11_18
*1047 FILLER_11_186
*1048 FILLER_11_193
*1049 FILLER_11_200
*1050 FILLER_11_207
*1051 FILLER_11_214
*1052 FILLER_11_221
*1053 FILLER_11_228
*1054 FILLER_11_235
*1055 FILLER_11_242
*1056 FILLER_11_249
*1057 FILLER_11_25
*1058 FILLER_11_256
*1059 FILLER_11_263
*1060 FILLER_11_270
*1061 FILLER_11_277
*1062 FILLER_11_284
*1063 FILLER_11_291
*1064 FILLER_11_298
*1065 FILLER_11_305
*1066 FILLER_11_312
*1067 FILLER_11_319
*1068 FILLER_11_32
*1069 FILLER_11_326
*1070 FILLER_11_333
*1071 FILLER_11_340
*1072 FILLER_11_347
*1073 FILLER_11_354
*1074 FILLER_11_361
*1075 FILLER_11_368
*1076 FILLER_11_375
*1077 FILLER_11_382
*1078 FILLER_11_389
*1079 FILLER_11_39
*1080 FILLER_11_396
*1081 FILLER_11_4
*1082 FILLER_11_403
*1083 FILLER_11_410
*1084 FILLER_11_417
*1085 FILLER_11_424
*1086 FILLER_11_431
*1087 FILLER_11_438
*1088 FILLER_11_445
*1089 FILLER_11_452
*1090 FILLER_11_459
*1091 FILLER_11_46
*1092 FILLER_11_466
*1093 FILLER_11_473
*1094 FILLER_11_480
*1095 FILLER_11_487
*1096 FILLER_11_494
*1097 FILLER_11_501
*1098 FILLER_11_508
*1099 FILLER_11_515
*1100 FILLER_11_522
*1101 FILLER_11_529
*1102 FILLER_11_53
*1103 FILLER_11_536
*1104 FILLER_11_543
*1105 FILLER_11_550
*1106 FILLER_11_557
*1107 FILLER_11_564
*1108 FILLER_11_571
*1109 FILLER_11_578
*1110 FILLER_11_592
*1111 FILLER_11_599
*1112 FILLER_11_60
*1113 FILLER_11_606
*1114 FILLER_11_614
*1115 FILLER_11_618
*1116 FILLER_11_626
*1117 FILLER_11_631
*1118 FILLER_11_633
*1119 FILLER_11_639
*1120 FILLER_11_668
*1121 FILLER_11_67
*1122 FILLER_11_717
*1123 FILLER_11_719
*1124 FILLER_11_74
*1125 FILLER_11_81
*1126 FILLER_11_88
*1127 FILLER_11_95
*1128 FILLER_12_102
*1129 FILLER_12_109
*1130 FILLER_12_11
*1131 FILLER_12_116
*1132 FILLER_12_123
*1133 FILLER_12_130
*1134 FILLER_12_137
*1135 FILLER_12_144
*1136 FILLER_12_151
*1137 FILLER_12_158
*1138 FILLER_12_165
*1139 FILLER_12_172
*1140 FILLER_12_179
*1141 FILLER_12_18
*1142 FILLER_12_186
*1143 FILLER_12_193
*1144 FILLER_12_200
*1145 FILLER_12_207
*1146 FILLER_12_214
*1147 FILLER_12_221
*1148 FILLER_12_228
*1149 FILLER_12_235
*1150 FILLER_12_242
*1151 FILLER_12_249
*1152 FILLER_12_25
*1153 FILLER_12_256
*1154 FILLER_12_263
*1155 FILLER_12_270
*1156 FILLER_12_277
*1157 FILLER_12_284
*1158 FILLER_12_291
*1159 FILLER_12_298
*1160 FILLER_12_305
*1161 FILLER_12_312
*1162 FILLER_12_319
*1163 FILLER_12_32
*1164 FILLER_12_326
*1165 FILLER_12_333
*1166 FILLER_12_340
*1167 FILLER_12_347
*1168 FILLER_12_354
*1169 FILLER_12_361
*1170 FILLER_12_368
*1171 FILLER_12_375
*1172 FILLER_12_382
*1173 FILLER_12_389
*1174 FILLER_12_39
*1175 FILLER_12_396
*1176 FILLER_12_4
*1177 FILLER_12_403
*1178 FILLER_12_410
*1179 FILLER_12_417
*1180 FILLER_12_424
*1181 FILLER_12_431
*1182 FILLER_12_438
*1183 FILLER_12_445
*1184 FILLER_12_452
*1185 FILLER_12_459
*1186 FILLER_12_46
*1187 FILLER_12_466
*1188 FILLER_12_473
*1189 FILLER_12_480
*1190 FILLER_12_487
*1191 FILLER_12_494
*1192 FILLER_12_501
*1193 FILLER_12_508
*1194 FILLER_12_515
*1195 FILLER_12_522
*1196 FILLER_12_529
*1197 FILLER_12_53
*1198 FILLER_12_536
*1199 FILLER_12_543
*1200 FILLER_12_550
*1201 FILLER_12_557
*1202 FILLER_12_564
*1203 FILLER_12_60
*1204 FILLER_12_635
*1205 FILLER_12_642
*1206 FILLER_12_644
*1207 FILLER_12_648
*1208 FILLER_12_652
*1209 FILLER_12_658
*1210 FILLER_12_662
*1211 FILLER_12_67
*1212 FILLER_12_704
*1213 FILLER_12_737
*1214 FILLER_12_74
*1215 FILLER_12_741
*1216 FILLER_12_743
*1217 FILLER_12_81
*1218 FILLER_12_88
*1219 FILLER_12_95
*1220 FILLER_13_104
*1221 FILLER_13_111
*1222 FILLER_13_118
*1223 FILLER_13_125
*1224 FILLER_13_13
*1225 FILLER_13_132
*1226 FILLER_13_139
*1227 FILLER_13_146
*1228 FILLER_13_153
*1229 FILLER_13_160
*1230 FILLER_13_167
*1231 FILLER_13_174
*1232 FILLER_13_181
*1233 FILLER_13_188
*1234 FILLER_13_195
*1235 FILLER_13_20
*1236 FILLER_13_202
*1237 FILLER_13_209
*1238 FILLER_13_216
*1239 FILLER_13_223
*1240 FILLER_13_230
*1241 FILLER_13_237
*1242 FILLER_13_244
*1243 FILLER_13_251
*1244 FILLER_13_258
*1245 FILLER_13_265
*1246 FILLER_13_27
*1247 FILLER_13_272
*1248 FILLER_13_279
*1249 FILLER_13_286
*1250 FILLER_13_293
*1251 FILLER_13_300
*1252 FILLER_13_307
*1253 FILLER_13_314
*1254 FILLER_13_321
*1255 FILLER_13_328
*1256 FILLER_13_335
*1257 FILLER_13_34
*1258 FILLER_13_342
*1259 FILLER_13_349
*1260 FILLER_13_356
*1261 FILLER_13_363
*1262 FILLER_13_370
*1263 FILLER_13_377
*1264 FILLER_13_384
*1265 FILLER_13_391
*1266 FILLER_13_398
*1267 FILLER_13_4
*1268 FILLER_13_405
*1269 FILLER_13_41
*1270 FILLER_13_412
*1271 FILLER_13_419
*1272 FILLER_13_426
*1273 FILLER_13_433
*1274 FILLER_13_440
*1275 FILLER_13_447
*1276 FILLER_13_454
*1277 FILLER_13_461
*1278 FILLER_13_468
*1279 FILLER_13_475
*1280 FILLER_13_48
*1281 FILLER_13_482
*1282 FILLER_13_489
*1283 FILLER_13_496
*1284 FILLER_13_503
*1285 FILLER_13_510
*1286 FILLER_13_517
*1287 FILLER_13_524
*1288 FILLER_13_531
*1289 FILLER_13_538
*1290 FILLER_13_545
*1291 FILLER_13_55
*1292 FILLER_13_552
*1293 FILLER_13_559
*1294 FILLER_13_563
*1295 FILLER_13_569
*1296 FILLER_13_576
*1297 FILLER_13_583
*1298 FILLER_13_593
*1299 FILLER_13_600
*1300 FILLER_13_614
*1301 FILLER_13_62
*1302 FILLER_13_621
*1303 FILLER_13_630
*1304 FILLER_13_637
*1305 FILLER_13_644
*1306 FILLER_13_69
*1307 FILLER_13_710
*1308 FILLER_13_712
*1309 FILLER_13_743
*1310 FILLER_13_76
*1311 FILLER_13_8
*1312 FILLER_13_83
*1313 FILLER_13_90
*1314 FILLER_13_97
*1315 FILLER_14_104
*1316 FILLER_14_111
*1317 FILLER_14_118
*1318 FILLER_14_125
*1319 FILLER_14_13
*1320 FILLER_14_132
*1321 FILLER_14_139
*1322 FILLER_14_146
*1323 FILLER_14_153
*1324 FILLER_14_160
*1325 FILLER_14_167
*1326 FILLER_14_174
*1327 FILLER_14_181
*1328 FILLER_14_188
*1329 FILLER_14_195
*1330 FILLER_14_20
*1331 FILLER_14_202
*1332 FILLER_14_209
*1333 FILLER_14_216
*1334 FILLER_14_223
*1335 FILLER_14_230
*1336 FILLER_14_237
*1337 FILLER_14_244
*1338 FILLER_14_251
*1339 FILLER_14_258
*1340 FILLER_14_265
*1341 FILLER_14_27
*1342 FILLER_14_272
*1343 FILLER_14_279
*1344 FILLER_14_286
*1345 FILLER_14_293
*1346 FILLER_14_300
*1347 FILLER_14_307
*1348 FILLER_14_314
*1349 FILLER_14_321
*1350 FILLER_14_328
*1351 FILLER_14_335
*1352 FILLER_14_34
*1353 FILLER_14_342
*1354 FILLER_14_349
*1355 FILLER_14_356
*1356 FILLER_14_363
*1357 FILLER_14_370
*1358 FILLER_14_377
*1359 FILLER_14_384
*1360 FILLER_14_391
*1361 FILLER_14_398
*1362 FILLER_14_4
*1363 FILLER_14_405
*1364 FILLER_14_41
*1365 FILLER_14_412
*1366 FILLER_14_419
*1367 FILLER_14_426
*1368 FILLER_14_433
*1369 FILLER_14_440
*1370 FILLER_14_447
*1371 FILLER_14_454
*1372 FILLER_14_461
*1373 FILLER_14_468
*1374 FILLER_14_475
*1375 FILLER_14_48
*1376 FILLER_14_482
*1377 FILLER_14_489
*1378 FILLER_14_496
*1379 FILLER_14_503
*1380 FILLER_14_510
*1381 FILLER_14_517
*1382 FILLER_14_524
*1383 FILLER_14_531
*1384 FILLER_14_538
*1385 FILLER_14_545
*1386 FILLER_14_55
*1387 FILLER_14_552
*1388 FILLER_14_559
*1389 FILLER_14_566
*1390 FILLER_14_573
*1391 FILLER_14_580
*1392 FILLER_14_587
*1393 FILLER_14_594
*1394 FILLER_14_601
*1395 FILLER_14_608
*1396 FILLER_14_612
*1397 FILLER_14_62
*1398 FILLER_14_649
*1399 FILLER_14_656
*1400 FILLER_14_658
*1401 FILLER_14_69
*1402 FILLER_14_695
*1403 FILLER_14_703
*1404 FILLER_14_76
*1405 FILLER_14_83
*1406 FILLER_14_90
*1407 FILLER_14_97
*1408 FILLER_15_105
*1409 FILLER_15_112
*1410 FILLER_15_119
*1411 FILLER_15_126
*1412 FILLER_15_133
*1413 FILLER_15_140
*1414 FILLER_15_147
*1415 FILLER_15_154
*1416 FILLER_15_161
*1417 FILLER_15_168
*1418 FILLER_15_175
*1419 FILLER_15_182
*1420 FILLER_15_189
*1421 FILLER_15_19
*1422 FILLER_15_196
*1423 FILLER_15_203
*1424 FILLER_15_210
*1425 FILLER_15_217
*1426 FILLER_15_224
*1427 FILLER_15_231
*1428 FILLER_15_238
*1429 FILLER_15_245
*1430 FILLER_15_252
*1431 FILLER_15_259
*1432 FILLER_15_266
*1433 FILLER_15_273
*1434 FILLER_15_28
*1435 FILLER_15_280
*1436 FILLER_15_287
*1437 FILLER_15_294
*1438 FILLER_15_301
*1439 FILLER_15_308
*1440 FILLER_15_315
*1441 FILLER_15_322
*1442 FILLER_15_329
*1443 FILLER_15_336
*1444 FILLER_15_343
*1445 FILLER_15_35
*1446 FILLER_15_350
*1447 FILLER_15_357
*1448 FILLER_15_364
*1449 FILLER_15_371
*1450 FILLER_15_378
*1451 FILLER_15_385
*1452 FILLER_15_392
*1453 FILLER_15_399
*1454 FILLER_15_4
*1455 FILLER_15_406
*1456 FILLER_15_413
*1457 FILLER_15_42
*1458 FILLER_15_420
*1459 FILLER_15_427
*1460 FILLER_15_434
*1461 FILLER_15_441
*1462 FILLER_15_448
*1463 FILLER_15_455
*1464 FILLER_15_462
*1465 FILLER_15_469
*1466 FILLER_15_476
*1467 FILLER_15_483
*1468 FILLER_15_49
*1469 FILLER_15_490
*1470 FILLER_15_497
*1471 FILLER_15_504
*1472 FILLER_15_511
*1473 FILLER_15_518
*1474 FILLER_15_525
*1475 FILLER_15_532
*1476 FILLER_15_539
*1477 FILLER_15_546
*1478 FILLER_15_553
*1479 FILLER_15_56
*1480 FILLER_15_560
*1481 FILLER_15_567
*1482 FILLER_15_574
*1483 FILLER_15_581
*1484 FILLER_15_588
*1485 FILLER_15_629
*1486 FILLER_15_63
*1487 FILLER_15_634
*1488 FILLER_15_641
*1489 FILLER_15_655
*1490 FILLER_15_660
*1491 FILLER_15_696
*1492 FILLER_15_70
*1493 FILLER_15_704
*1494 FILLER_15_714
*1495 FILLER_15_721
*1496 FILLER_15_732
*1497 FILLER_15_739
*1498 FILLER_15_743
*1499 FILLER_15_77
*1500 FILLER_15_8
*1501 FILLER_15_84
*1502 FILLER_15_91
*1503 FILLER_15_98
*1504 FILLER_16_105
*1505 FILLER_16_112
*1506 FILLER_16_119
*1507 FILLER_16_126
*1508 FILLER_16_133
*1509 FILLER_16_140
*1510 FILLER_16_147
*1511 FILLER_16_154
*1512 FILLER_16_161
*1513 FILLER_16_168
*1514 FILLER_16_175
*1515 FILLER_16_182
*1516 FILLER_16_189
*1517 FILLER_16_196
*1518 FILLER_16_203
*1519 FILLER_16_210
*1520 FILLER_16_217
*1521 FILLER_16_224
*1522 FILLER_16_231
*1523 FILLER_16_238
*1524 FILLER_16_245
*1525 FILLER_16_252
*1526 FILLER_16_259
*1527 FILLER_16_266
*1528 FILLER_16_273
*1529 FILLER_16_280
*1530 FILLER_16_287
*1531 FILLER_16_294
*1532 FILLER_16_301
*1533 FILLER_16_308
*1534 FILLER_16_315
*1535 FILLER_16_322
*1536 FILLER_16_329
*1537 FILLER_16_336
*1538 FILLER_16_343
*1539 FILLER_16_35
*1540 FILLER_16_350
*1541 FILLER_16_357
*1542 FILLER_16_364
*1543 FILLER_16_371
*1544 FILLER_16_378
*1545 FILLER_16_385
*1546 FILLER_16_392
*1547 FILLER_16_399
*1548 FILLER_16_406
*1549 FILLER_16_413
*1550 FILLER_16_42
*1551 FILLER_16_420
*1552 FILLER_16_427
*1553 FILLER_16_434
*1554 FILLER_16_441
*1555 FILLER_16_448
*1556 FILLER_16_455
*1557 FILLER_16_462
*1558 FILLER_16_469
*1559 FILLER_16_476
*1560 FILLER_16_483
*1561 FILLER_16_49
*1562 FILLER_16_490
*1563 FILLER_16_497
*1564 FILLER_16_504
*1565 FILLER_16_511
*1566 FILLER_16_518
*1567 FILLER_16_525
*1568 FILLER_16_532
*1569 FILLER_16_539
*1570 FILLER_16_546
*1571 FILLER_16_553
*1572 FILLER_16_56
*1573 FILLER_16_560
*1574 FILLER_16_567
*1575 FILLER_16_574
*1576 FILLER_16_581
*1577 FILLER_16_588
*1578 FILLER_16_595
*1579 FILLER_16_602
*1580 FILLER_16_63
*1581 FILLER_16_679
*1582 FILLER_16_70
*1583 FILLER_16_77
*1584 FILLER_16_84
*1585 FILLER_16_91
*1586 FILLER_16_98
*1587 FILLER_17_0
*1588 FILLER_17_101
*1589 FILLER_17_108
*1590 FILLER_17_115
*1591 FILLER_17_122
*1592 FILLER_17_129
*1593 FILLER_17_136
*1594 FILLER_17_143
*1595 FILLER_17_150
*1596 FILLER_17_157
*1597 FILLER_17_164
*1598 FILLER_17_171
*1599 FILLER_17_178
*1600 FILLER_17_185
*1601 FILLER_17_192
*1602 FILLER_17_199
*1603 FILLER_17_206
*1604 FILLER_17_213
*1605 FILLER_17_220
*1606 FILLER_17_227
*1607 FILLER_17_234
*1608 FILLER_17_241
*1609 FILLER_17_248
*1610 FILLER_17_255
*1611 FILLER_17_262
*1612 FILLER_17_269
*1613 FILLER_17_276
*1614 FILLER_17_283
*1615 FILLER_17_290
*1616 FILLER_17_297
*1617 FILLER_17_30
*1618 FILLER_17_304
*1619 FILLER_17_311
*1620 FILLER_17_318
*1621 FILLER_17_325
*1622 FILLER_17_332
*1623 FILLER_17_339
*1624 FILLER_17_346
*1625 FILLER_17_353
*1626 FILLER_17_360
*1627 FILLER_17_367
*1628 FILLER_17_374
*1629 FILLER_17_381
*1630 FILLER_17_388
*1631 FILLER_17_395
*1632 FILLER_17_402
*1633 FILLER_17_409
*1634 FILLER_17_416
*1635 FILLER_17_423
*1636 FILLER_17_430
*1637 FILLER_17_437
*1638 FILLER_17_444
*1639 FILLER_17_451
*1640 FILLER_17_458
*1641 FILLER_17_465
*1642 FILLER_17_472
*1643 FILLER_17_479
*1644 FILLER_17_486
*1645 FILLER_17_493
*1646 FILLER_17_500
*1647 FILLER_17_507
*1648 FILLER_17_514
*1649 FILLER_17_521
*1650 FILLER_17_528
*1651 FILLER_17_535
*1652 FILLER_17_542
*1653 FILLER_17_549
*1654 FILLER_17_556
*1655 FILLER_17_563
*1656 FILLER_17_570
*1657 FILLER_17_577
*1658 FILLER_17_584
*1659 FILLER_17_59
*1660 FILLER_17_591
*1661 FILLER_17_595
*1662 FILLER_17_620
*1663 FILLER_17_631
*1664 FILLER_17_638
*1665 FILLER_17_645
*1666 FILLER_17_656
*1667 FILLER_17_658
*1668 FILLER_17_66
*1669 FILLER_17_662
*1670 FILLER_17_669
*1671 FILLER_17_676
*1672 FILLER_17_683
*1673 FILLER_17_690
*1674 FILLER_17_692
*1675 FILLER_17_696
*1676 FILLER_17_703
*1677 FILLER_17_715
*1678 FILLER_17_724
*1679 FILLER_17_73
*1680 FILLER_17_731
*1681 FILLER_17_738
*1682 FILLER_17_740
*1683 FILLER_17_80
*1684 FILLER_17_87
*1685 FILLER_17_94
*1686 FILLER_18_101
*1687 FILLER_18_108
*1688 FILLER_18_115
*1689 FILLER_18_122
*1690 FILLER_18_129
*1691 FILLER_18_13
*1692 FILLER_18_136
*1693 FILLER_18_143
*1694 FILLER_18_150
*1695 FILLER_18_157
*1696 FILLER_18_164
*1697 FILLER_18_171
*1698 FILLER_18_178
*1699 FILLER_18_185
*1700 FILLER_18_192
*1701 FILLER_18_199
*1702 FILLER_18_20
*1703 FILLER_18_206
*1704 FILLER_18_213
*1705 FILLER_18_220
*1706 FILLER_18_227
*1707 FILLER_18_234
*1708 FILLER_18_241
*1709 FILLER_18_248
*1710 FILLER_18_255
*1711 FILLER_18_262
*1712 FILLER_18_269
*1713 FILLER_18_276
*1714 FILLER_18_283
*1715 FILLER_18_290
*1716 FILLER_18_297
*1717 FILLER_18_304
*1718 FILLER_18_31
*1719 FILLER_18_311
*1720 FILLER_18_318
*1721 FILLER_18_325
*1722 FILLER_18_332
*1723 FILLER_18_339
*1724 FILLER_18_346
*1725 FILLER_18_353
*1726 FILLER_18_360
*1727 FILLER_18_367
*1728 FILLER_18_374
*1729 FILLER_18_38
*1730 FILLER_18_381
*1731 FILLER_18_388
*1732 FILLER_18_395
*1733 FILLER_18_4
*1734 FILLER_18_402
*1735 FILLER_18_409
*1736 FILLER_18_416
*1737 FILLER_18_423
*1738 FILLER_18_430
*1739 FILLER_18_437
*1740 FILLER_18_444
*1741 FILLER_18_45
*1742 FILLER_18_451
*1743 FILLER_18_458
*1744 FILLER_18_465
*1745 FILLER_18_472
*1746 FILLER_18_479
*1747 FILLER_18_486
*1748 FILLER_18_493
*1749 FILLER_18_519
*1750 FILLER_18_52
*1751 FILLER_18_526