*SPEF "ieee 1481-1999"
*DESIGN "heichips25_template"
*DATE "03:17:15 Wednesday February 11, 2026"
*VENDOR "The OpenROAD Project"
*PROGRAM "OpenROAD"
*VERSION "dfc4f595dfb2e1c346492ff1f0274abb28725acf"
*DESIGN_FLOW "NAME_SCOPE LOCAL" "PIN_CAP NONE"
*DIVIDER /
*DELIMITER :
*BUS_DELIMITER []
*T_UNIT 1 NS
*C_UNIT 1 PF
*R_UNIT 1 OHM
*L_UNIT 1 HENRY

*NAME_MAP
*3 clk
*4 ena
*5 i_in
*6 i_out
*7 rst_n
*8 ui_in[0]
*9 ui_in[1]
*10 ui_in[2]
*11 ui_in[3]
*12 ui_in[4]
*13 ui_in[5]
*14 ui_in[6]
*15 ui_in[7]
*16 uio_in[0]
*17 uio_in[1]
*18 uio_in[2]
*19 uio_in[3]
*20 uio_in[4]
*21 uio_in[5]
*22 uio_in[6]
*23 uio_in[7]
*24 net14
*25 net15
*26 net16
*27 net17
*28 net18
*29 net19
*30 net20
*31 net21
*32 net22
*33 net23
*34 net
*35 net1
*36 net2
*37 net3
*38 net4
*39 net5
*40 net6
*41 net7
*42 net8
*43 net9
*44 net10
*45 net11
*46 net12
*47 net13
*48 FILLER_0_0
*49 FILLER_0_1001
*50 FILLER_0_1008
*51 FILLER_0_1015
*52 FILLER_0_1022
*53 FILLER_0_105
*54 FILLER_0_112
*55 FILLER_0_119
*56 FILLER_0_126
*57 FILLER_0_133
*58 FILLER_0_14
*59 FILLER_0_140
*60 FILLER_0_147
*61 FILLER_0_154
*62 FILLER_0_161
*63 FILLER_0_168
*64 FILLER_0_175
*65 FILLER_0_182
*66 FILLER_0_189
*67 FILLER_0_196
*68 FILLER_0_203
*69 FILLER_0_21
*70 FILLER_0_210
*71 FILLER_0_217
*72 FILLER_0_224
*73 FILLER_0_231
*74 FILLER_0_238
*75 FILLER_0_245
*76 FILLER_0_252
*77 FILLER_0_259
*78 FILLER_0_266
*79 FILLER_0_273
*80 FILLER_0_28
*81 FILLER_0_280
*82 FILLER_0_287
*83 FILLER_0_294
*84 FILLER_0_301
*85 FILLER_0_308
*86 FILLER_0_315
*87 FILLER_0_322
*88 FILLER_0_329
*89 FILLER_0_336
*90 FILLER_0_343
*91 FILLER_0_35
*92 FILLER_0_350
*93 FILLER_0_357
*94 FILLER_0_364
*95 FILLER_0_371
*96 FILLER_0_378
*97 FILLER_0_385
*98 FILLER_0_392
*99 FILLER_0_399
*100 FILLER_0_406
*101 FILLER_0_413
*102 FILLER_0_42
*103 FILLER_0_420
*104 FILLER_0_427
*105 FILLER_0_434
*106 FILLER_0_441
*107 FILLER_0_448
*108 FILLER_0_455
*109 FILLER_0_462
*110 FILLER_0_469
*111 FILLER_0_476
*112 FILLER_0_483
*113 FILLER_0_49
*114 FILLER_0_490
*115 FILLER_0_497
*116 FILLER_0_504
*117 FILLER_0_511
*118 FILLER_0_518
*119 FILLER_0_525
*120 FILLER_0_532
*121 FILLER_0_539
*122 FILLER_0_546
*123 FILLER_0_553
*124 FILLER_0_56
*125 FILLER_0_560
*126 FILLER_0_567
*127 FILLER_0_574
*128 FILLER_0_581
*129 FILLER_0_588
*130 FILLER_0_595
*131 FILLER_0_602
*132 FILLER_0_609
*133 FILLER_0_616
*134 FILLER_0_623
*135 FILLER_0_63
*136 FILLER_0_630
*137 FILLER_0_637
*138 FILLER_0_644
*139 FILLER_0_651
*140 FILLER_0_658
*141 FILLER_0_665
*142 FILLER_0_672
*143 FILLER_0_679
*144 FILLER_0_686
*145 FILLER_0_693
*146 FILLER_0_7
*147 FILLER_0_70
*148 FILLER_0_700
*149 FILLER_0_707
*150 FILLER_0_714
*151 FILLER_0_721
*152 FILLER_0_728
*153 FILLER_0_735
*154 FILLER_0_742
*155 FILLER_0_749
*156 FILLER_0_756
*157 FILLER_0_763
*158 FILLER_0_77
*159 FILLER_0_770
*160 FILLER_0_777
*161 FILLER_0_784
*162 FILLER_0_791
*163 FILLER_0_798
*164 FILLER_0_805
*165 FILLER_0_812
*166 FILLER_0_819
*167 FILLER_0_826
*168 FILLER_0_833
*169 FILLER_0_84
*170 FILLER_0_840
*171 FILLER_0_847
*172 FILLER_0_854
*173 FILLER_0_861
*174 FILLER_0_868
*175 FILLER_0_875
*176 FILLER_0_882
*177 FILLER_0_889
*178 FILLER_0_896
*179 FILLER_0_903
*180 FILLER_0_91
*181 FILLER_0_910
*182 FILLER_0_917
*183 FILLER_0_924
*184 FILLER_0_931
*185 FILLER_0_938
*186 FILLER_0_945
*187 FILLER_0_952
*188 FILLER_0_959
*189 FILLER_0_966
*190 FILLER_0_973
*191 FILLER_0_98
*192 FILLER_0_980
*193 FILLER_0_987
*194 FILLER_0_994
*195 FILLER_10_1005
*196 FILLER_10_1012
*197 FILLER_10_1019
*198 FILLER_10_102
*199 FILLER_10_1026
*200 FILLER_10_1028
*201 FILLER_10_109
*202 FILLER_10_11
*203 FILLER_10_116
*204 FILLER_10_123
*205 FILLER_10_130
*206 FILLER_10_137
*207 FILLER_10_144
*208 FILLER_10_151
*209 FILLER_10_158
*210 FILLER_10_165
*211 FILLER_10_172
*212 FILLER_10_179
*213 FILLER_10_18
*214 FILLER_10_186
*215 FILLER_10_193
*216 FILLER_10_200
*217 FILLER_10_207
*218 FILLER_10_214
*219 FILLER_10_221
*220 FILLER_10_228
*221 FILLER_10_235
*222 FILLER_10_242
*223 FILLER_10_249
*224 FILLER_10_25
*225 FILLER_10_256
*226 FILLER_10_263
*227 FILLER_10_270
*228 FILLER_10_277
*229 FILLER_10_284
*230 FILLER_10_291
*231 FILLER_10_298
*232 FILLER_10_305
*233 FILLER_10_312
*234 FILLER_10_319
*235 FILLER_10_32
*236 FILLER_10_326
*237 FILLER_10_333
*238 FILLER_10_340
*239 FILLER_10_347
*240 FILLER_10_354
*241 FILLER_10_361
*242 FILLER_10_368
*243 FILLER_10_375
*244 FILLER_10_382
*245 FILLER_10_389
*246 FILLER_10_39
*247 FILLER_10_396
*248 FILLER_10_4
*249 FILLER_10_403
*250 FILLER_10_410
*251 FILLER_10_417
*252 FILLER_10_424
*253 FILLER_10_431
*254 FILLER_10_438
*255 FILLER_10_445
*256 FILLER_10_452
*257 FILLER_10_459
*258 FILLER_10_46
*259 FILLER_10_466
*260 FILLER_10_473
*261 FILLER_10_480
*262 FILLER_10_487
*263 FILLER_10_494
*264 FILLER_10_501
*265 FILLER_10_508
*266 FILLER_10_515
*267 FILLER_10_522
*268 FILLER_10_529
*269 FILLER_10_53
*270 FILLER_10_536
*271 FILLER_10_543
*272 FILLER_10_550
*273 FILLER_10_557
*274 FILLER_10_564
*275 FILLER_10_571
*276 FILLER_10_578
*277 FILLER_10_585
*278 FILLER_10_592
*279 FILLER_10_599
*280 FILLER_10_60
*281 FILLER_10_606
*282 FILLER_10_613
*283 FILLER_10_620
*284 FILLER_10_627
*285 FILLER_10_634
*286 FILLER_10_641
*287 FILLER_10_648
*288 FILLER_10_655
*289 FILLER_10_662
*290 FILLER_10_669
*291 FILLER_10_67
*292 FILLER_10_676
*293 FILLER_10_683
*294 FILLER_10_690
*295 FILLER_10_697
*296 FILLER_10_704
*297 FILLER_10_711
*298 FILLER_10_718
*299 FILLER_10_725
*300 FILLER_10_732
*301 FILLER_10_739
*302 FILLER_10_74
*303 FILLER_10_746
*304 FILLER_10_753
*305 FILLER_10_760
*306 FILLER_10_767
*307 FILLER_10_774
*308 FILLER_10_781
*309 FILLER_10_788
*310 FILLER_10_795
*311 FILLER_10_802
*312 FILLER_10_809
*313 FILLER_10_81
*314 FILLER_10_816
*315 FILLER_10_823
*316 FILLER_10_830
*317 FILLER_10_837
*318 FILLER_10_844
*319 FILLER_10_851
*320 FILLER_10_858
*321 FILLER_10_865
*322 FILLER_10_872
*323 FILLER_10_879
*324 FILLER_10_88
*325 FILLER_10_886
*326 FILLER_10_893
*327 FILLER_10_900
*328 FILLER_10_907
*329 FILLER_10_914
*330 FILLER_10_921
*331 FILLER_10_928
*332 FILLER_10_935
*333 FILLER_10_942
*334 FILLER_10_949
*335 FILLER_10_95
*336 FILLER_10_956
*337 FILLER_10_963
*338 FILLER_10_970
*339 FILLER_10_977
*340 FILLER_10_984
*341 FILLER_10_991
*342 FILLER_10_998
*343 FILLER_11_1005
*344 FILLER_11_1012
*345 FILLER_11_1019
*346 FILLER_11_102
*347 FILLER_11_1026
*348 FILLER_11_1028
*349 FILLER_11_109
*350 FILLER_11_11
*351 FILLER_11_116
*352 FILLER_11_123
*353 FILLER_11_130
*354 FILLER_11_137
*355 FILLER_11_144
*356 FILLER_11_151
*357 FILLER_11_158
*358 FILLER_11_165
*359 FILLER_11_172
*360 FILLER_11_179
*361 FILLER_11_18
*362 FILLER_11_186
*363 FILLER_11_193
*364 FILLER_11_200
*365 FILLER_11_207
*366 FILLER_11_214
*367 FILLER_11_221
*368 FILLER_11_228
*369 FILLER_11_235
*370 FILLER_11_242
*371 FILLER_11_249
*372 FILLER_11_25
*373 FILLER_11_256
*374 FILLER_11_263
*375 FILLER_11_270
*376 FILLER_11_277
*377 FILLER_11_284
*378 FILLER_11_291
*379 FILLER_11_298
*380 FILLER_11_305
*381 FILLER_11_312
*382 FILLER_11_319
*383 FILLER_11_32
*384 FILLER_11_326
*385 FILLER_11_333
*386 FILLER_11_340
*387 FILLER_11_347
*388 FILLER_11_354
*389 FILLER_11_361
*390 FILLER_11_368
*391 FILLER_11_375
*392 FILLER_11_382
*393 FILLER_11_389
*394 FILLER_11_39
*395 FILLER_11_396
*396 FILLER_11_4
*397 FILLER_11_403
*398 FILLER_11_410
*399 FILLER_11_417
*400 FILLER_11_424
*401 FILLER_11_431
*402 FILLER_11_438
*403 FILLER_11_445
*404 FILLER_11_452
*405 FILLER_11_459
*406 FILLER_11_46
*407 FILLER_11_466
*408 FILLER_11_473
*409 FILLER_11_480
*410 FILLER_11_487
*411 FILLER_11_494
*412 FILLER_11_501
*413 FILLER_11_508
*414 FILLER_11_515
*415 FILLER_11_522
*416 FILLER_11_529
*417 FILLER_11_53
*418 FILLER_11_536
*419 FILLER_11_543
*420 FILLER_11_550
*421 FILLER_11_557
*422 FILLER_11_564
*423 FILLER_11_571
*424 FILLER_11_578
*425 FILLER_11_585
*426 FILLER_11_592
*427 FILLER_11_599
*428 FILLER_11_60
*429 FILLER_11_606
*430 FILLER_11_613
*431 FILLER_11_620
*432 FILLER_11_627
*433 FILLER_11_634
*434 FILLER_11_641
*435 FILLER_11_648
*436 FILLER_11_655
*437 FILLER_11_662
*438 FILLER_11_669
*439 FILLER_11_67
*440 FILLER_11_676
*441 FILLER_11_683
*442 FILLER_11_690
*443 FILLER_11_697
*444 FILLER_11_704
*445 FILLER_11_711
*446 FILLER_11_718
*447 FILLER_11_725
*448 FILLER_11_732
*449 FILLER_11_739
*450 FILLER_11_74
*451 FILLER_11_746
*452 FILLER_11_753
*453 FILLER_11_760
*454 FILLER_11_767
*455 FILLER_11_774
*456 FILLER_11_781
*457 FILLER_11_788
*458 FILLER_11_795
*459 FILLER_11_802
*460 FILLER_11_809
*461 FILLER_11_81
*462 FILLER_11_816
*463 FILLER_11_823
*464 FILLER_11_830
*465 FILLER_11_837
*466 FILLER_11_844
*467 FILLER_11_851
*468 FILLER_11_858
*469 FILLER_11_865
*470 FILLER_11_872
*471 FILLER_11_879
*472 FILLER_11_88
*473 FILLER_11_886
*474 FILLER_11_893
*475 FILLER_11_900
*476 FILLER_11_907
*477 FILLER_11_914
*478 FILLER_11_921
*479 FILLER_11_928
*480 FILLER_11_935
*481 FILLER_11_942
*482 FILLER_11_949
*483 FILLER_11_95
*484 FILLER_11_956
*485 FILLER_11_963
*486 FILLER_11_970
*487 FILLER_11_977
*488 FILLER_11_984
*489 FILLER_11_991
*490 FILLER_11_998
*491 FILLER_12_1005
*492 FILLER_12_1012
*493 FILLER_12_1019
*494 FILLER_12_102
*495 FILLER_12_1026
*496 FILLER_12_1028
*497 FILLER_12_109
*498 FILLER_12_11
*499 FILLER_12_116
*500 FILLER_12_123
*501 FILLER_12_130
*502 FILLER_12_137
*503 FILLER_12_144
*504 FILLER_12_151
*505 FILLER_12_158
*506 FILLER_12_165
*507 FILLER_12_172
*508 FILLER_12_179
*509 FILLER_12_18
*510 FILLER_12_186
*511 FILLER_12_193
*512 FILLER_12_200
*513 FILLER_12_207
*514 FILLER_12_214
*515 FILLER_12_221
*516 FILLER_12_228
*517 FILLER_12_235
*518 FILLER_12_242
*519 FILLER_12_249
*520 FILLER_12_25
*521 FILLER_12_256
*522 FILLER_12_263
*523 FILLER_12_270
*524 FILLER_12_277
*525 FILLER_12_284
*526 FILLER_12_291
*527 FILLER_12_298
*528 FILLER_12_305
*529 FILLER_12_312
*530 FILLER_12_319
*531 FILLER_12_32
*532 FILLER_12_326
*533 FILLER_12_333
*534 FILLER_12_340
*535 FILLER_12_347
*536 FILLER_12_354
*537 FILLER_12_361
*538 FILLER_12_368
*539 FILLER_12_375
*540 FILLER_12_382
*541 FILLER_12_389
*542 FILLER_12_39
*543 FILLER_12_396
*544 FILLER_12_4
*545 FILLER_12_403
*546 FILLER_12_410
*547 FILLER_12_417
*548 FILLER_12_424
*549 FILLER_12_431
*550 FILLER_12_438
*551 FILLER_12_445
*552 FILLER_12_452
*553 FILLER_12_459
*554 FILLER_12_46
*555 FILLER_12_466
*556 FILLER_12_473
*557 FILLER_12_480
*558 FILLER_12_487
*559 FILLER_12_494
*560 FILLER_12_501
*561 FILLER_12_508
*562 FILLER_12_515
*563 FILLER_12_522
*564 FILLER_12_529
*565 FILLER_12_53
*566 FILLER_12_536
*567 FILLER_12_543
*568 FILLER_12_550
*569 FILLER_12_557
*570 FILLER_12_564
*571 FILLER_12_571
*572 FILLER_12_578
*573 FILLER_12_585
*574 FILLER_12_592
*575 FILLER_12_599
*576 FILLER_12_60
*577 FILLER_12_606
*578 FILLER_12_613
*579 FILLER_12_620
*580 FILLER_12_627
*581 FILLER_12_634
*582 FILLER_12_641
*583 FILLER_12_648
*584 FILLER_12_655
*585 FILLER_12_662
*586 FILLER_12_669
*587 FILLER_12_67
*588 FILLER_12_676
*589 FILLER_12_683
*590 FILLER_12_690
*591 FILLER_12_697
*592 FILLER_12_704
*593 FILLER_12_711
*594 FILLER_12_718
*595 FILLER_12_725
*596 FILLER_12_732
*597 FILLER_12_739
*598 FILLER_12_74
*599 FILLER_12_746
*600 FILLER_12_753
*601 FILLER_12_760
*602 FILLER_12_767
*603 FILLER_12_774
*604 FILLER_12_781
*605 FILLER_12_788
*606 FILLER_12_795
*607 FILLER_12_802
*608 FILLER_12_809
*609 FILLER_12_81
*610 FILLER_12_816
*611 FILLER_12_823
*612 FILLER_12_830
*613 FILLER_12_837
*614 FILLER_12_844
*615 FILLER_12_851
*616 FILLER_12_858
*617 FILLER_12_865
*618 FILLER_12_872
*619 FILLER_12_879
*620 FILLER_12_88
*621 FILLER_12_886
*622 FILLER_12_893
*623 FILLER_12_900
*624 FILLER_12_907
*625 FILLER_12_914
*626 FILLER_12_921
*627 FILLER_12_928
*628 FILLER_12_935
*629 FILLER_12_942
*630 FILLER_12_949
*631 FILLER_12_95
*632 FILLER_12_956
*633 FILLER_12_963
*634 FILLER_12_970
*635 FILLER_12_977
*636 FILLER_12_984
*637 FILLER_12_991
*638 FILLER_12_998
*639 FILLER_13_1005
*640 FILLER_13_1012
*641 FILLER_13_1019
*642 FILLER_13_102
*643 FILLER_13_1026
*644 FILLER_13_1028
*645 FILLER_13_109
*646 FILLER_13_11
*647 FILLER_13_116
*648 FILLER_13_123
*649 FILLER_13_130
*650 FILLER_13_137
*651 FILLER_13_144
*652 FILLER_13_151
*653 FILLER_13_158
*654 FILLER_13_165
*655 FILLER_13_172
*656 FILLER_13_179
*657 FILLER_13_18
*658 FILLER_13_186
*659 FILLER_13_193
*660 FILLER_13_200
*661 FILLER_13_207
*662 FILLER_13_214
*663 FILLER_13_221
*664 FILLER_13_228
*665 FILLER_13_235
*666 FILLER_13_242
*667 FILLER_13_249
*668 FILLER_13_25
*669 FILLER_13_256
*670 FILLER_13_263
*671 FILLER_13_270
*672 FILLER_13_277
*673 FILLER_13_284
*674 FILLER_13_291
*675 FILLER_13_298
*676 FILLER_13_305
*677 FILLER_13_312
*678 FILLER_13_319
*679 FILLER_13_32
*680 FILLER_13_326
*681 FILLER_13_333
*682 FILLER_13_340
*683 FILLER_13_347
*684 FILLER_13_354
*685 FILLER_13_361
*686 FILLER_13_368
*687 FILLER_13_375
*688 FILLER_13_382
*689 FILLER_13_389
*690 FILLER_13_39
*691 FILLER_13_396
*692 FILLER_13_4
*693 FILLER_13_403
*694 FILLER_13_410
*695 FILLER_13_417
*696 FILLER_13_424
*697 FILLER_13_431
*698 FILLER_13_438
*699 FILLER_13_445
*700 FILLER_13_452
*701 FILLER_13_459
*702 FILLER_13_46
*703 FILLER_13_466
*704 FILLER_13_473
*705 FILLER_13_480
*706 FILLER_13_487
*707 FILLER_13_494
*708 FILLER_13_501
*709 FILLER_13_508
*710 FILLER_13_515
*711 FILLER_13_522
*712 FILLER_13_529
*713 FILLER_13_53
*714 FILLER_13_536
*715 FILLER_13_543
*716 FILLER_13_550
*717 FILLER_13_557
*718 FILLER_13_564
*719 FILLER_13_571
*720 FILLER_13_578
*721 FILLER_13_585
*722 FILLER_13_592
*723 FILLER_13_599
*724 FILLER_13_60
*725 FILLER_13_606
*726 FILLER_13_613
*727 FILLER_13_620
*728 FILLER_13_627
*729 FILLER_13_634
*730 FILLER_13_641
*731 FILLER_13_648
*732 FILLER_13_655
*733 FILLER_13_662
*734 FILLER_13_669
*735 FILLER_13_67
*736 FILLER_13_676
*737 FILLER_13_683
*738 FILLER_13_690
*739 FILLER_13_697
*740 FILLER_13_704
*741 FILLER_13_711
*742 FILLER_13_718
*743 FILLER_13_725
*744 FILLER_13_732
*745 FILLER_13_739
*746 FILLER_13_74
*747 FILLER_13_746
*748 FILLER_13_753
*749 FILLER_13_760
*750 FILLER_13_767
*751 FILLER_13_774
*752 FILLER_13_781
*753 FILLER_13_788
*754 FILLER_13_795
*755 FILLER_13_802
*756 FILLER_13_809
*757 FILLER_13_81
*758 FILLER_13_816
*759 FILLER_13_823
*760 FILLER_13_830
*761 FILLER_13_837
*762 FILLER_13_844
*763 FILLER_13_851
*764 FILLER_13_858
*765 FILLER_13_865
*766 FILLER_13_872
*767 FILLER_13_879
*768 FILLER_13_88
*769 FILLER_13_886
*770 FILLER_13_893
*771 FILLER_13_900
*772 FILLER_13_907
*773 FILLER_13_914
*774 FILLER_13_921
*775 FILLER_13_928
*776 FILLER_13_935
*777 FILLER_13_942
*778 FILLER_13_949
*779 FILLER_13_95
*780 FILLER_13_956
*781 FILLER_13_963
*782 FILLER_13_970
*783 FILLER_13_977
*784 FILLER_13_984
*785 FILLER_13_991
*786 FILLER_13_998
*787 FILLER_14_1005
*788 FILLER_14_1012
*789 FILLER_14_1019
*790 FILLER_14_102
*791 FILLER_14_1026
*792 FILLER_14_1028
*793 FILLER_14_109
*794 FILLER_14_11
*795 FILLER_14_116
*796 FILLER_14_123
*797 FILLER_14_130
*798 FILLER_14_137
*799 FILLER_14_144
*800 FILLER_14_151
*801 FILLER_14_158
*802 FILLER_14_165
*803 FILLER_14_172
*804 FILLER_14_179
*805 FILLER_14_18
*806 FILLER_14_186
*807 FILLER_14_193
*808 FILLER_14_200
*809 FILLER_14_207
*810 FILLER_14_214
*811 FILLER_14_221
*812 FILLER_14_228
*813 FILLER_14_235
*814 FILLER_14_242
*815 FILLER_14_249
*816 FILLER_14_25
*817 FILLER_14_256
*818 FILLER_14_263
*819 FILLER_14_270
*820 FILLER_14_277
*821 FILLER_14_284
*822 FILLER_14_291
*823 FILLER_14_298
*824 FILLER_14_305
*825 FILLER_14_312
*826 FILLER_14_319
*827 FILLER_14_32
*828 FILLER_14_326
*829 FILLER_14_333
*830 FILLER_14_340
*831 FILLER_14_347
*832 FILLER_14_354
*833 FILLER_14_361
*834 FILLER_14_368
*835 FILLER_14_375
*836 FILLER_14_382
*837 FILLER_14_389
*838 FILLER_14_39
*839 FILLER_14_396
*840 FILLER_14_4
*841 FILLER_14_403
*842 FILLER_14_410
*843 FILLER_14_417
*844 FILLER_14_424
*845 FILLER_14_431
*846 FILLER_14_438
*847 FILLER_14_445
*848 FILLER_14_452
*849 FILLER_14_459
*850 FILLER_14_46
*851 FILLER_14_466
*852 FILLER_14_473
*853 FILLER_14_480
*854 FILLER_14_487
*855 FILLER_14_494
*856 FILLER_14_501
*857 FILLER_14_508
*858 FILLER_14_515
*859 FILLER_14_522
*860 FILLER_14_529
*861 FILLER_14_53
*862 FILLER_14_536
*863 FILLER_14_543
*864 FILLER_14_550
*865 FILLER_14_557
*866 FILLER_14_564
*867 FILLER_14_571
*868 FILLER_14_578
*869 FILLER_14_585
*870 FILLER_14_592
*871 FILLER_14_599
*872 FILLER_14_60
*873 FILLER_14_606
*874 FILLER_14_613
*875 FILLER_14_620
*876 FILLER_14_627
*877 FILLER_14_634
*878 FILLER_14_641
*879 FILLER_14_648
*880 FILLER_14_655
*881 FILLER_14_662
*882 FILLER_14_669
*883 FILLER_14_67
*884 FILLER_14_676
*885 FILLER_14_683
*886 FILLER_14_690
*887 FILLER_14_697
*888 FILLER_14_704
*889 FILLER_14_711
*890 FILLER_14_718
*891 FILLER_14_725
*892 FILLER_14_732
*893 FILLER_14_739
*894 FILLER_14_74
*895 FILLER_14_746
*896 FILLER_14_753
*897 FILLER_14_760
*898 FILLER_14_767
*899 FILLER_14_774
*900 FILLER_14_781
*901 FILLER_14_788
*902 FILLER_14_795
*903 FILLER_14_802
*904 FILLER_14_809
*905 FILLER_14_81
*906 FILLER_14_816
*907 FILLER_14_823
*908 FILLER_14_830
*909 FILLER_14_837
*910 FILLER_14_844
*911 FILLER_14_851
*912 FILLER_14_858
*913 FILLER_14_865
*914 FILLER_14_872
*915 FILLER_14_879
*916 FILLER_14_88
*917 FILLER_14_886
*918 FILLER_14_893
*919 FILLER_14_900
*920 FILLER_14_907
*921 FILLER_14_914
*922 FILLER_14_921
*923 FILLER_14_928
*924 FILLER_14_935
*925 FILLER_14_942
*926 FILLER_14_949
*927 FILLER_14_95
*928 FILLER_14_956
*929 FILLER_14_963
*930 FILLER_14_970
*931 FILLER_14_977
*932 FILLER_14_984
*933 FILLER_14_991
*934 FILLER_14_998
*935 FILLER_15_1005
*936 FILLER_15_1012
*937 FILLER_15_1019
*938 FILLER_15_102
*939 FILLER_15_1026
*940 FILLER_15_1028
*941 FILLER_15_109
*942 FILLER_15_11
*943 FILLER_15_116
*944 FILLER_15_123
*945 FILLER_15_130
*946 FILLER_15_137
*947 FILLER_15_144
*948 FILLER_15_151
*949 FILLER_15_158
*950 FILLER_15_165
*951 FILLER_15_172
*952 FILLER_15_179
*953 FILLER_15_18
*954 FILLER_15_186
*955 FILLER_15_193
*956 FILLER_15_200
*957 FILLER_15_207
*958 FILLER_15_214
*959 FILLER_15_221
*960 FILLER_15_228
*961 FILLER_15_235
*962 FILLER_15_242
*963 FILLER_15_249
*964 FILLER_15_25
*965 FILLER_15_256
*966 FILLER_15_263
*967 FILLER_15_270
*968 FILLER_15_277
*969 FILLER_15_284
*970 FILLER_15_291
*971 FILLER_15_298
*972 FILLER_15_305
*973 FILLER_15_312
*974 FILLER_15_319
*975 FILLER_15_32
*976 FILLER_15_326
*977 FILLER_15_333
*978 FILLER_15_340
*979 FILLER_15_347
*980 FILLER_15_354
*981 FILLER_15_361
*982 FILLER_15_368
*983 FILLER_15_375
*984 FILLER_15_382
*985 FILLER_15_389
*986 FILLER_15_39
*987 FILLER_15_396
*988 FILLER_15_4
*989 FILLER_15_403
*990 FILLER_15_410
*991 FILLER_15_417
*992 FILLER_15_424
*993 FILLER_15_431
*994 FILLER_15_438
*995 FILLER_15_445
*996 FILLER_15_452
*997 FILLER_15_459
*998 FILLER_15_46
*999 FILLER_15_466
*1000 FILLER_15_473
*1001 FILLER_15_480
*1002 FILLER_15_487
*1003 FILLER_15_494
*1004 FILLER_15_501
*1005 FILLER_15_508
*1006 FILLER_15_515
*1007 FILLER_15_522
*1008 FILLER_15_529
*1009 FILLER_15_53
*1010 FILLER_15_536
*1011 FILLER_15_543
*1012 FILLER_15_550
*1013 FILLER_15_557
*1014 FILLER_15_564
*1015 FILLER_15_571
*1016 FILLER_15_578
*1017 FILLER_15_585
*1018 FILLER_15_592
*1019 FILLER_15_599
*1020 FILLER_15_60
*1021 FILLER_15_606
*1022 FILLER_15_613
*1023 FILLER_15_620
*1024 FILLER_15_627
*1025 FILLER_15_634
*1026 FILLER_15_641
*1027 FILLER_15_648
*1028 FILLER_15_655
*1029 FILLER_15_662
*1030 FILLER_15_669
*1031 FILLER_15_67
*1032 FILLER_15_676
*1033 FILLER_15_683
*1034 FILLER_15_690
*1035 FILLER_15_697
*1036 FILLER_15_704
*1037 FILLER_15_711
*1038 FILLER_15_718
*1039 FILLER_15_725
*1040 FILLER_15_732
*1041 FILLER_15_739
*1042 FILLER_15_74
*1043 FILLER_15_746
*1044 FILLER_15_753
*1045 FILLER_15_760
*1046 FILLER_15_767
*1047 FILLER_15_774
*1048 FILLER_15_781
*1049 FILLER_15_788
*1050 FILLER_15_795
*1051 FILLER_15_802
*1052 FILLER_15_809
*1053 FILLER_15_81
*1054 FILLER_15_816
*1055 FILLER_15_823
*1056 FILLER_15_830
*1057 FILLER_15_837
*1058 FILLER_15_844
*1059 FILLER_15_851
*1060 FILLER_15_858
*1061 FILLER_15_865
*1062 FILLER_15_872
*1063 FILLER_15_879
*1064 FILLER_15_88
*1065 FILLER_15_886
*1066 FILLER_15_893
*1067 FILLER_15_900
*1068 FILLER_15_907
*1069 FILLER_15_914
*1070 FILLER_15_921
*1071 FILLER_15_928
*1072 FILLER_15_935
*1073 FILLER_15_942
*1074 FILLER_15_949
*1075 FILLER_15_95
*1076 FILLER_15_956
*1077 FILLER_15_963
*1078 FILLER_15_970
*1079 FILLER_15_977
*1080 FILLER_15_984
*1081 FILLER_15_991
*1082 FILLER_15_998
*1083 FILLER_16_1005
*1084 FILLER_16_1012
*1085 FILLER_16_1019
*1086 FILLER_16_102
*1087 FILLER_16_1026
*1088 FILLER_16_1028
*1089 FILLER_16_109
*1090 FILLER_16_11
*1091 FILLER_16_116
*1092 FILLER_16_123
*1093 FILLER_16_130
*1094 FILLER_16_137
*1095 FILLER_16_144
*1096 FILLER_16_151
*1097 FILLER_16_158
*1098 FILLER_16_165
*1099 FILLER_16_172
*1100 FILLER_16_179
*1101 FILLER_16_18
*1102 FILLER_16_186
*1103 FILLER_16_193
*1104 FILLER_16_200
*1105 FILLER_16_207
*1106 FILLER_16_214
*1107 FILLER_16_221
*1108 FILLER_16_228
*1109 FILLER_16_235
*1110 FILLER_16_242
*1111 FILLER_16_249
*1112 FILLER_16_25
*1113 FILLER_16_256
*1114 FILLER_16_263
*1115 FILLER_16_270
*1116 FILLER_16_277
*1117 FILLER_16_284
*1118 FILLER_16_291
*1119 FILLER_16_298
*1120 FILLER_16_305
*1121 FILLER_16_312
*1122 FILLER_16_319
*1123 FILLER_16_32
*1124 FILLER_16_326
*1125 FILLER_16_333
*1126 FILLER_16_340
*1127 FILLER_16_347
*1128 FILLER_16_354
*1129 FILLER_16_361
*1130 FILLER_16_368
*1131 FILLER_16_375
*1132 FILLER_16_382
*1133 FILLER_16_389
*1134 FILLER_16_39
*1135 FILLER_16_396
*1136 FILLER_16_4
*1137 FILLER_16_403
*1138 FILLER_16_410
*1139 FILLER_16_417
*1140 FILLER_16_424
*1141 FILLER_16_431
*1142 FILLER_16_438
*1143 FILLER_16_445
*1144 FILLER_16_452
*1145 FILLER_16_459
*1146 FILLER_16_46
*1147 FILLER_16_466
*1148 FILLER_16_473
*1149 FILLER_16_480
*1150 FILLER_16_487
*1151 FILLER_16_494
*1152 FILLER_16_501
*1153 FILLER_16_508
*1154 FILLER_16_515
*1155 FILLER_16_522
*1156 FILLER_16_529
*1157 FILLER_16_53
*1158 FILLER_16_536
*1159 FILLER_16_543
*1160 FILLER_16_550
*1161 FILLER_16_557
*1162 FILLER_16_564
*1163 FILLER_16_571
*1164 FILLER_16_578
*1165 FILLER_16_585
*1166 FILLER_16_592
*1167 FILLER_16_599
*1168 FILLER_16_60
*1169 FILLER_16_606
*1170 FILLER_16_613
*1171 FILLER_16_620
*1172 FILLER_16_627
*1173 FILLER_16_634
*1174 FILLER_16_641
*1175 FILLER_16_648
*1176 FILLER_16_655
*1177 FILLER_16_662
*1178 FILLER_16_669
*1179 FILLER_16_67
*1180 FILLER_16_676
*1181 FILLER_16_683
*1182 FILLER_16_690
*1183 FILLER_16_697
*1184 FILLER_16_704
*1185 FILLER_16_711
*1186 FILLER_16_718
*1187 FILLER_16_725
*1188 FILLER_16_732
*1189 FILLER_16_739
*1190 FILLER_16_74
*1191 FILLER_16_746
*1192 FILLER_16_753
*1193 FILLER_16_760
*1194 FILLER_16_767
*1195 FILLER_16_774
*1196 FILLER_16_781
*1197 FILLER_16_788
*1198 FILLER_16_795
*1199 FILLER_16_802
*1200 FILLER_16_809
*1201 FILLER_16_81
*1202 FILLER_16_816
*1203 FILLER_16_823
*1204 FILLER_16_830
*1205 FILLER_16_837
*1206 FILLER_16_844
*1207 FILLER_16_851
*1208 FILLER_16_858
*1209 FILLER_16_865
*1210 FILLER_16_872
*1211 FILLER_16_879
*1212 FILLER_16_88
*1213 FILLER_16_886
*1214 FILLER_16_893
*1215 FILLER_16_900
*1216 FILLER_16_907
*1217 FILLER_16_914
*1218 FILLER_16_921
*1219 FILLER_16_928
*1220 FILLER_16_935
*1221 FILLER_16_942
*1222 FILLER_16_949
*1223 FILLER_16_95
*1224 FILLER_16_956
*1225 FILLER_16_963
*1226 FILLER_16_970
*1227 FILLER_16_977
*1228 FILLER_16_984
*1229 FILLER_16_991
*1230 FILLER_16_998
*1231 FILLER_17_0
*1232 FILLER_17_1001
*1233 FILLER_17_1008
*1234 FILLER_17_1015
*1235 FILLER_17_1022
*1236 FILLER_17_105
*1237 FILLER_17_112
*1238 FILLER_17_119
*1239 FILLER_17_126
*1240 FILLER_17_133
*1241 FILLER_17_14
*1242 FILLER_17_140
*1243 FILLER_17_147
*1244 FILLER_17_154
*1245 FILLER_17_161
*1246 FILLER_17_168
*1247 FILLER_17_175
*1248 FILLER_17_182
*1249 FILLER_17_189
*1250 FILLER_17_196
*1251 FILLER_17_203
*1252 FILLER_17_21
*1253 FILLER_17_210
*1254 FILLER_17_217
*1255 FILLER_17_224
*1256 FILLER_17_231
*1257 FILLER_17_238
*1258 FILLER_17_245
*1259 FILLER_17_252
*1260 FILLER_17_259
*1261 FILLER_17_266
*1262 FILLER_17_273
*1263 FILLER_17_28
*1264 FILLER_17_280
*1265 FILLER_17_287
*1266 FILLER_17_294
*1267 FILLER_17_301
*1268 FILLER_17_308
*1269 FILLER_17_315
*1270 FILLER_17_322
*1271 FILLER_17_329
*1272 FILLER_17_336
*1273 FILLER_17_343
*1274 FILLER_17_35
*1275 FILLER_17_350
*1276 FILLER_17_357
*1277 FILLER_17_364
*1278 FILLER_17_371
*1279 FILLER_17_378
*1280 FILLER_17_385
*1281 FILLER_17_392
*1282 FILLER_17_399
*1283 FILLER_17_406
*1284 FILLER_17_413
*1285 FILLER_17_42
*1286 FILLER_17_420
*1287 FILLER_17_427
*1288 FILLER_17_434
*1289 FILLER_17_441
*1290 FILLER_17_448
*1291 FILLER_17_455
*1292 FILLER_17_462
*1293 FILLER_17_469
*1294 FILLER_17_476
*1295 FILLER_17_483
*1296 FILLER_17_49
*1297 FILLER_17_490
*1298 FILLER_17_497
*1299 FILLER_17_504
*1300 FILLER_17_511
*1301 FILLER_17_518
*1302 FILLER_17_525
*1303 FILLER_17_532
*1304 FILLER_17_539
*1305 FILLER_17_546
*1306 FILLER_17_553
*1307 FILLER_17_56
*1308 FILLER_17_560
*1309 FILLER_17_567
*1310 FILLER_17_574
*1311 FILLER_17_581
*1312 FILLER_17_588
*1313 FILLER_17_595
*1314 FILLER_17_602
*1315 FILLER_17_609
*1316 FILLER_17_616
*1317 FILLER_17_623
*1318 FILLER_17_63
*1319 FILLER_17_630
*1320 FILLER_17_637
*1321 FILLER_17_644
*1322 FILLER_17_651
*1323 FILLER_17_658
*1324 FILLER_17_665
*1325 FILLER_17_672
*1326 FILLER_17_679
*1327 FILLER_17_686
*1328 FILLER_17_693
*1329 FILLER_17_7
*1330 FILLER_17_70
*1331 FILLER_17_700
*1332 FILLER_17_707
*1333 FILLER_17_714
*1334 FILLER_17_721
*1335 FILLER_17_728
*1336 FILLER_17_735
*1337 FILLER_17_742
*1338 FILLER_17_749
*1339 FILLER_17_756
*1340 FILLER_17_763
*1341 FILLER_17_77
*1342 FILLER_17_770
*1343 FILLER_17_777
*1344 FILLER_17_784
*1345 FILLER_17_791
*1346 FILLER_17_798
*1347 FILLER_17_805
*1348 FILLER_17_812
*1349 FILLER_17_819
*1350 FILLER_17_826
*1351 FILLER_17_833
*1352 FILLER_17_84
*1353 FILLER_17_840
*1354 FILLER_17_847
*1355 FILLER_17_854
*1356 FILLER_17_861
*1357 FILLER_17_868
*1358 FILLER_17_875
*1359 FILLER_17_882
*1360 FILLER_17_889
*1361 FILLER_17_896
*1362 FILLER_17_903
*1363 FILLER_17_91
*1364 FILLER_17_910
*1365 FILLER_17_917
*1366 FILLER_17_924
*1367 FILLER_17_931
*1368 FILLER_17_938
*1369 FILLER_17_945
*1370 FILLER_17_952
*1371 FILLER_17_959
*1372 FILLER_17_966
*1373 FILLER_17_973
*1374 FILLER_17_98
*1375 FILLER_17_980
*1376 FILLER_17_987
*1377 FILLER_17_994
*1378 FILLER_18_1005
*1379 FILLER_18_1012
*1380 FILLER_18_1019
*1381 FILLER_18_102
*1382 FILLER_18_1026
*1383 FILLER_18_1028
*1384 FILLER_18_109
*1385 FILLER_18_11
*1386 FILLER_18_116
*1387 FILLER_18_123
*1388 FILLER_18_130
*1389 FILLER_18_137
*1390 FILLER_18_144
*1391 FILLER_18_151
*1392 FILLER_18_158
*1393 FILLER_18_165
*1394 FILLER_18_172
*1395 FILLER_18_179
*1396 FILLER_18_18
*1397 FILLER_18_186
*1398 FILLER_18_193
*1399 FILLER_18_200
*1400 FILLER_18_207
*1401 FILLER_18_214
*1402 FILLER_18_221
*1403 FILLER_18_228
*1404 FILLER_18_235
*1405 FILLER_18_242
*1406 FILLER_18_249
*1407 FILLER_18_25
*1408 FILLER_18_256
*1409 FILLER_18_263
*1410 FILLER_18_270
*1411 FILLER_18_277
*1412 FILLER_18_284
*1413 FILLER_18_291
*1414 FILLER_18_298
*1415 FILLER_18_305
*1416 FILLER_18_312
*1417 FILLER_18_319
*1418 FILLER_18_32
*1419 FILLER_18_326
*1420 FILLER_18_333
*1421 FILLER_18_340
*1422 FILLER_18_347
*1423 FILLER_18_354
*1424 FILLER_18_361
*1425 FILLER_18_368
*1426 FILLER_18_375
*1427 FILLER_18_382
*1428 FILLER_18_389
*1429 FILLER_18_39
*1430 FILLER_18_396
*1431 FILLER_18_4
*1432 FILLER_18_403
*1433 FILLER_18_410
*1434 FILLER_18_417
*1435 FILLER_18_424
*1436 FILLER_18_431
*1437 FILLER_18_438
*1438 FILLER_18_445
*1439 FILLER_18_452
*1440 FILLER_18_459
*1441 FILLER_18_46
*1442 FILLER_18_466
*1443 FILLER_18_473
*1444 FILLER_18_480
*1445 FILLER_18_487
*1446 FILLER_18_494
*1447 FILLER_18_501
*1448 FILLER_18_508
*1449 FILLER_18_515
*1450 FILLER_18_522
*1451 FILLER_18_529
*1452 FILLER_18_53
*1453 FILLER_18_536
*1454 FILLER_18_543
*1455 FILLER_18_550
*1456 FILLER_18_557
*1457 FILLER_18_564
*1458 FILLER_18_571
*1459 FILLER_18_578
*1460 FILLER_18_585
*1461 FILLER_18_592
*1462 FILLER_18_599
*1463 FILLER_18_60
*1464 FILLER_18_606
*1465 FILLER_18_613
*1466 FILLER_18_620
*1467 FILLER_18_627
*1468 FILLER_18_634
*1469 FILLER_18_641
*1470 FILLER_18_648
*1471 FILLER_18_655
*1472 FILLER_18_662
*1473 FILLER_18_669
*1474 FILLER_18_67
*1475 FILLER_18_676
*1476 FILLER_18_683
*1477 FILLER_18_690
*1478 FILLER_18_697
*1479 FILLER_18_704
*1480 FILLER_18_711
*1481 FILLER_18_718
*1482 FILLER_18_725
*1483 FILLER_18_732
*1484 FILLER_18_739
*1485 FILLER_18_74
*1486 FILLER_18_746
*1487 FILLER_18_753
*1488 FILLER_18_760
*1489 FILLER_18_767
*1490 FILLER_18_774
*1491 FILLER_18_781
*1492 FILLER_18_788
*1493 FILLER_18_795
*1494 FILLER_18_802
*1495 FILLER_18_809
*1496 FILLER_18_81
*1497 FILLER_18_816
*1498 FILLER_18_823
*1499 FILLER_18_830
*1500 FILLER_18_837
*1501 FILLER_18_844
*1502 FILLER_18_851
*1503 FILLER_18_858
*1504 FILLER_18_865
*1505 FILLER_18_872
*1506 FILLER_18_879
*1507 FILLER_18_88
*1508 FILLER_18_886
*1509 FILLER_18_893
*1510 FILLER_18_900
*1511 FILLER_18_907
*1512 FILLER_18_914
*1513 FILLER_18_921
*1514 FILLER_18_928
*1515 FILLER_18_935
*1516 FILLER_18_942
*1517 FILLER_18_949
*1518 FILLER_18_95
*1519 FILLER_18_956
*1520 FILLER_18_963
*1521 FILLER_18_970
*1522 FILLER_18_977
*1523 FILLER_18_984
*1524 FILLER_18_991
*1525 FILLER_18_998
*1526 FILLER_19_1005
*1527 FILLER_19_1012
*1528 FILLER_19_1019
*1529 FILLER_19_102
*1530 FILLER_19_1026
*1531 FILLER_19_1028
*1532 FILLER_19_109
*1533 FILLER_19_11
*1534 FILLER_19_116
*1535 FILLER_19_123
*1536 FILLER_19_130
*1537 FILLER_19_137
*1538 FILLER_19_144
*1539 FILLER_19_151
*1540 FILLER_19_158
*1541 FILLER_19_165
*1542 FILLER_19_172
*1543 FILLER_19_179
*1544 FILLER_19_18
*1545 FILLER_19_186
*1546 FILLER_19_193
*1547 FILLER_19_200
*1548 FILLER_19_207
*1549 FILLER_19_214
*1550 FILLER_19_221
*1551 FILLER_19_228
*1552 FILLER_19_235
*1553 FILLER_19_242
*1554 FILLER_19_249
*1555 FILLER_19_25
*1556 FILLER_19_256
*1557 FILLER_19_263
*1558 FILLER_19_270
*1559 FILLER_19_277
*1560 FILLER_19_284
*1561 FILLER_19_291
*1562 FILLER_19_298
*1563 FILLER_19_305
*1564 FILLER_19_312
*1565 FILLER_19_319
*1566 FILLER_19_32
*1567 FILLER_19_326