*SPEF "ieee 1481-1999"
*DESIGN "heichips25_template"
*DATE "02:42:58 Wednesday February 11, 2026"
*VENDOR "The OpenROAD Project"
*PROGRAM "OpenROAD"
*VERSION "dfc4f595dfb2e1c346492ff1f0274abb28725acf"
*DESIGN_FLOW "NAME_SCOPE LOCAL" "PIN_CAP NONE"
*DIVIDER /
*DELIMITER :
*BUS_DELIMITER []
*T_UNIT 1 NS
*C_UNIT 1 PF
*R_UNIT 1 OHM
*L_UNIT 1 HENRY

*NAME_MAP
*3 analog_pin0
*4 analog_pin1
*5 analog_pin2
*6 analog_pin3
*7 clk
*8 ena
*9 rst_n
*10 ui_in[0]
*11 ui_in[1]
*12 ui_in[2]
*13 ui_in[3]
*14 ui_in[4]
*15 ui_in[5]
*16 ui_in[6]
*17 ui_in[7]
*18 uio_in[0]
*19 uio_in[1]
*20 uio_in[2]
*21 uio_in[3]
*22 uio_in[4]
*23 uio_in[5]
*24 uio_in[6]
*25 uio_in[7]
*26 net14
*27 net15
*28 net16
*29 net17
*30 net18
*31 net19
*32 net20
*33 net21
*34 net22
*35 net23
*36 net
*37 net1
*38 net2
*39 net3
*40 net4
*41 net5
*42 net6
*43 net7
*44 net8
*45 net9
*46 net10
*47 net11
*48 net12
*49 net13
*50 FILLER_0_0
*51 FILLER_0_1001
*52 FILLER_0_1008
*53 FILLER_0_1015
*54 FILLER_0_1022
*55 FILLER_0_105
*56 FILLER_0_112
*57 FILLER_0_119
*58 FILLER_0_126
*59 FILLER_0_133
*60 FILLER_0_14
*61 FILLER_0_140
*62 FILLER_0_147
*63 FILLER_0_154
*64 FILLER_0_161
*65 FILLER_0_168
*66 FILLER_0_175
*67 FILLER_0_182
*68 FILLER_0_189
*69 FILLER_0_196
*70 FILLER_0_203
*71 FILLER_0_21
*72 FILLER_0_210
*73 FILLER_0_217
*74 FILLER_0_224
*75 FILLER_0_231
*76 FILLER_0_238
*77 FILLER_0_245
*78 FILLER_0_252
*79 FILLER_0_259
*80 FILLER_0_266
*81 FILLER_0_273
*82 FILLER_0_28
*83 FILLER_0_280
*84 FILLER_0_287
*85 FILLER_0_294
*86 FILLER_0_301
*87 FILLER_0_308
*88 FILLER_0_315
*89 FILLER_0_322
*90 FILLER_0_329
*91 FILLER_0_336
*92 FILLER_0_343
*93 FILLER_0_35
*94 FILLER_0_350
*95 FILLER_0_357
*96 FILLER_0_364
*97 FILLER_0_371
*98 FILLER_0_378
*99 FILLER_0_385
*100 FILLER_0_392
*101 FILLER_0_399
*102 FILLER_0_406
*103 FILLER_0_413
*104 FILLER_0_42
*105 FILLER_0_420
*106 FILLER_0_427
*107 FILLER_0_434
*108 FILLER_0_441
*109 FILLER_0_448
*110 FILLER_0_455
*111 FILLER_0_462
*112 FILLER_0_469
*113 FILLER_0_476
*114 FILLER_0_483
*115 FILLER_0_49
*116 FILLER_0_490
*117 FILLER_0_497
*118 FILLER_0_504
*119 FILLER_0_511
*120 FILLER_0_518
*121 FILLER_0_525
*122 FILLER_0_532
*123 FILLER_0_539
*124 FILLER_0_546
*125 FILLER_0_553
*126 FILLER_0_56
*127 FILLER_0_560
*128 FILLER_0_567
*129 FILLER_0_574
*130 FILLER_0_581
*131 FILLER_0_588
*132 FILLER_0_595
*133 FILLER_0_602
*134 FILLER_0_609
*135 FILLER_0_616
*136 FILLER_0_623
*137 FILLER_0_63
*138 FILLER_0_630
*139 FILLER_0_637
*140 FILLER_0_644
*141 FILLER_0_651
*142 FILLER_0_658
*143 FILLER_0_665
*144 FILLER_0_672
*145 FILLER_0_679
*146 FILLER_0_686
*147 FILLER_0_693
*148 FILLER_0_7
*149 FILLER_0_70
*150 FILLER_0_700
*151 FILLER_0_707
*152 FILLER_0_714
*153 FILLER_0_721
*154 FILLER_0_728
*155 FILLER_0_735
*156 FILLER_0_742
*157 FILLER_0_749
*158 FILLER_0_756
*159 FILLER_0_763
*160 FILLER_0_77
*161 FILLER_0_770
*162 FILLER_0_777
*163 FILLER_0_784
*164 FILLER_0_791
*165 FILLER_0_798
*166 FILLER_0_805
*167 FILLER_0_812
*168 FILLER_0_819
*169 FILLER_0_826
*170 FILLER_0_833
*171 FILLER_0_84
*172 FILLER_0_840
*173 FILLER_0_847
*174 FILLER_0_854
*175 FILLER_0_861
*176 FILLER_0_868
*177 FILLER_0_875
*178 FILLER_0_882
*179 FILLER_0_889
*180 FILLER_0_896
*181 FILLER_0_903
*182 FILLER_0_91
*183 FILLER_0_910
*184 FILLER_0_917
*185 FILLER_0_924
*186 FILLER_0_931
*187 FILLER_0_938
*188 FILLER_0_945
*189 FILLER_0_952
*190 FILLER_0_959
*191 FILLER_0_966
*192 FILLER_0_973
*193 FILLER_0_98
*194 FILLER_0_980
*195 FILLER_0_987
*196 FILLER_0_994
*197 FILLER_10_1005
*198 FILLER_10_1012
*199 FILLER_10_1019
*200 FILLER_10_102
*201 FILLER_10_1026
*202 FILLER_10_1028
*203 FILLER_10_109
*204 FILLER_10_11
*205 FILLER_10_116
*206 FILLER_10_123
*207 FILLER_10_130
*208 FILLER_10_137
*209 FILLER_10_144
*210 FILLER_10_151
*211 FILLER_10_158
*212 FILLER_10_165
*213 FILLER_10_172
*214 FILLER_10_179
*215 FILLER_10_18
*216 FILLER_10_186
*217 FILLER_10_193
*218 FILLER_10_200
*219 FILLER_10_207
*220 FILLER_10_214
*221 FILLER_10_221
*222 FILLER_10_228
*223 FILLER_10_235
*224 FILLER_10_242
*225 FILLER_10_249
*226 FILLER_10_25
*227 FILLER_10_256
*228 FILLER_10_263
*229 FILLER_10_270
*230 FILLER_10_277
*231 FILLER_10_284
*232 FILLER_10_291
*233 FILLER_10_298
*234 FILLER_10_305
*235 FILLER_10_312
*236 FILLER_10_319
*237 FILLER_10_32
*238 FILLER_10_326
*239 FILLER_10_333
*240 FILLER_10_340
*241 FILLER_10_347
*242 FILLER_10_354
*243 FILLER_10_361
*244 FILLER_10_368
*245 FILLER_10_375
*246 FILLER_10_382
*247 FILLER_10_389
*248 FILLER_10_39
*249 FILLER_10_396
*250 FILLER_10_4
*251 FILLER_10_403
*252 FILLER_10_410
*253 FILLER_10_417
*254 FILLER_10_424
*255 FILLER_10_431
*256 FILLER_10_438
*257 FILLER_10_445
*258 FILLER_10_452
*259 FILLER_10_459
*260 FILLER_10_46
*261 FILLER_10_466
*262 FILLER_10_473
*263 FILLER_10_480
*264 FILLER_10_487
*265 FILLER_10_494
*266 FILLER_10_501
*267 FILLER_10_508
*268 FILLER_10_515
*269 FILLER_10_522
*270 FILLER_10_529
*271 FILLER_10_53
*272 FILLER_10_536
*273 FILLER_10_543
*274 FILLER_10_550
*275 FILLER_10_557
*276 FILLER_10_564
*277 FILLER_10_571
*278 FILLER_10_578
*279 FILLER_10_585
*280 FILLER_10_592
*281 FILLER_10_599
*282 FILLER_10_60
*283 FILLER_10_606
*284 FILLER_10_613
*285 FILLER_10_620
*286 FILLER_10_627
*287 FILLER_10_634
*288 FILLER_10_641
*289 FILLER_10_648
*290 FILLER_10_655
*291 FILLER_10_662
*292 FILLER_10_669
*293 FILLER_10_67
*294 FILLER_10_676
*295 FILLER_10_683
*296 FILLER_10_690
*297 FILLER_10_697
*298 FILLER_10_704
*299 FILLER_10_711
*300 FILLER_10_718
*301 FILLER_10_725
*302 FILLER_10_732
*303 FILLER_10_739
*304 FILLER_10_74
*305 FILLER_10_746
*306 FILLER_10_753
*307 FILLER_10_760
*308 FILLER_10_767
*309 FILLER_10_774
*310 FILLER_10_781
*311 FILLER_10_788
*312 FILLER_10_795
*313 FILLER_10_802
*314 FILLER_10_809
*315 FILLER_10_81
*316 FILLER_10_816
*317 FILLER_10_823
*318 FILLER_10_830
*319 FILLER_10_837
*320 FILLER_10_844
*321 FILLER_10_851
*322 FILLER_10_858
*323 FILLER_10_865
*324 FILLER_10_872
*325 FILLER_10_879
*326 FILLER_10_88
*327 FILLER_10_886
*328 FILLER_10_893
*329 FILLER_10_900
*330 FILLER_10_907
*331 FILLER_10_914
*332 FILLER_10_921
*333 FILLER_10_928
*334 FILLER_10_935
*335 FILLER_10_942
*336 FILLER_10_949
*337 FILLER_10_95
*338 FILLER_10_956
*339 FILLER_10_963
*340 FILLER_10_970
*341 FILLER_10_977
*342 FILLER_10_984
*343 FILLER_10_991
*344 FILLER_10_998
*345 FILLER_11_1005
*346 FILLER_11_1012
*347 FILLER_11_1019
*348 FILLER_11_102
*349 FILLER_11_1026
*350 FILLER_11_1028
*351 FILLER_11_109
*352 FILLER_11_11
*353 FILLER_11_116
*354 FILLER_11_123
*355 FILLER_11_130
*356 FILLER_11_137
*357 FILLER_11_144
*358 FILLER_11_151
*359 FILLER_11_158
*360 FILLER_11_165
*361 FILLER_11_172
*362 FILLER_11_179
*363 FILLER_11_18
*364 FILLER_11_186
*365 FILLER_11_193
*366 FILLER_11_200
*367 FILLER_11_207
*368 FILLER_11_214
*369 FILLER_11_221
*370 FILLER_11_228
*371 FILLER_11_235
*372 FILLER_11_242
*373 FILLER_11_249
*374 FILLER_11_25
*375 FILLER_11_256
*376 FILLER_11_263
*377 FILLER_11_270
*378 FILLER_11_277
*379 FILLER_11_284
*380 FILLER_11_291
*381 FILLER_11_298
*382 FILLER_11_305
*383 FILLER_11_312
*384 FILLER_11_319
*385 FILLER_11_32
*386 FILLER_11_326
*387 FILLER_11_333
*388 FILLER_11_340
*389 FILLER_11_347
*390 FILLER_11_354
*391 FILLER_11_361
*392 FILLER_11_368
*393 FILLER_11_375
*394 FILLER_11_382
*395 FILLER_11_389
*396 FILLER_11_39
*397 FILLER_11_396
*398 FILLER_11_4
*399 FILLER_11_403
*400 FILLER_11_410
*401 FILLER_11_417
*402 FILLER_11_424
*403 FILLER_11_431
*404 FILLER_11_438
*405 FILLER_11_445
*406 FILLER_11_452
*407 FILLER_11_459
*408 FILLER_11_46
*409 FILLER_11_466
*410 FILLER_11_473
*411 FILLER_11_480
*412 FILLER_11_487
*413 FILLER_11_494
*414 FILLER_11_501
*415 FILLER_11_508
*416 FILLER_11_515
*417 FILLER_11_522
*418 FILLER_11_529
*419 FILLER_11_53
*420 FILLER_11_536
*421 FILLER_11_543
*422 FILLER_11_550
*423 FILLER_11_557
*424 FILLER_11_564
*425 FILLER_11_571
*426 FILLER_11_578
*427 FILLER_11_585
*428 FILLER_11_592
*429 FILLER_11_599
*430 FILLER_11_60
*431 FILLER_11_606
*432 FILLER_11_613
*433 FILLER_11_620
*434 FILLER_11_627
*435 FILLER_11_634
*436 FILLER_11_641
*437 FILLER_11_648
*438 FILLER_11_655
*439 FILLER_11_662
*440 FILLER_11_669
*441 FILLER_11_67
*442 FILLER_11_676
*443 FILLER_11_683
*444 FILLER_11_690
*445 FILLER_11_697
*446 FILLER_11_704
*447 FILLER_11_711
*448 FILLER_11_718
*449 FILLER_11_725
*450 FILLER_11_732
*451 FILLER_11_739
*452 FILLER_11_74
*453 FILLER_11_746
*454 FILLER_11_753
*455 FILLER_11_760
*456 FILLER_11_767
*457 FILLER_11_774
*458 FILLER_11_781
*459 FILLER_11_788
*460 FILLER_11_795
*461 FILLER_11_802
*462 FILLER_11_809
*463 FILLER_11_81
*464 FILLER_11_816
*465 FILLER_11_823
*466 FILLER_11_830
*467 FILLER_11_837
*468 FILLER_11_844
*469 FILLER_11_851
*470 FILLER_11_858
*471 FILLER_11_865
*472 FILLER_11_872
*473 FILLER_11_879
*474 FILLER_11_88
*475 FILLER_11_886
*476 FILLER_11_893
*477 FILLER_11_900
*478 FILLER_11_907
*479 FILLER_11_914
*480 FILLER_11_921
*481 FILLER_11_928
*482 FILLER_11_935
*483 FILLER_11_942
*484 FILLER_11_949
*485 FILLER_11_95
*486 FILLER_11_956
*487 FILLER_11_963
*488 FILLER_11_970
*489 FILLER_11_977
*490 FILLER_11_984
*491 FILLER_11_991
*492 FILLER_11_998
*493 FILLER_12_1005
*494 FILLER_12_1012
*495 FILLER_12_1019
*496 FILLER_12_102
*497 FILLER_12_1026
*498 FILLER_12_1028
*499 FILLER_12_109
*500 FILLER_12_11
*501 FILLER_12_116
*502 FILLER_12_123
*503 FILLER_12_130
*504 FILLER_12_137
*505 FILLER_12_144
*506 FILLER_12_151
*507 FILLER_12_158
*508 FILLER_12_165
*509 FILLER_12_172
*510 FILLER_12_179
*511 FILLER_12_18
*512 FILLER_12_186
*513 FILLER_12_193
*514 FILLER_12_200
*515 FILLER_12_207
*516 FILLER_12_214
*517 FILLER_12_221
*518 FILLER_12_228
*519 FILLER_12_235
*520 FILLER_12_242
*521 FILLER_12_249
*522 FILLER_12_25
*523 FILLER_12_256
*524 FILLER_12_263
*525 FILLER_12_270
*526 FILLER_12_277
*527 FILLER_12_284
*528 FILLER_12_291
*529 FILLER_12_298
*530 FILLER_12_305
*531 FILLER_12_312
*532 FILLER_12_319
*533 FILLER_12_32
*534 FILLER_12_326
*535 FILLER_12_333
*536 FILLER_12_340
*537 FILLER_12_347
*538 FILLER_12_354
*539 FILLER_12_361
*540 FILLER_12_368
*541 FILLER_12_375
*542 FILLER_12_382
*543 FILLER_12_389
*544 FILLER_12_39
*545 FILLER_12_396
*546 FILLER_12_4
*547 FILLER_12_403
*548 FILLER_12_410
*549 FILLER_12_417
*550 FILLER_12_424
*551 FILLER_12_431
*552 FILLER_12_438
*553 FILLER_12_445
*554 FILLER_12_452
*555 FILLER_12_459
*556 FILLER_12_46
*557 FILLER_12_466
*558 FILLER_12_473
*559 FILLER_12_480
*560 FILLER_12_487
*561 FILLER_12_494
*562 FILLER_12_501
*563 FILLER_12_508
*564 FILLER_12_515
*565 FILLER_12_522
*566 FILLER_12_529
*567 FILLER_12_53
*568 FILLER_12_536
*569 FILLER_12_543
*570 FILLER_12_550
*571 FILLER_12_557
*572 FILLER_12_564
*573 FILLER_12_571
*574 FILLER_12_578
*575 FILLER_12_585
*576 FILLER_12_592
*577 FILLER_12_599
*578 FILLER_12_60
*579 FILLER_12_606
*580 FILLER_12_613
*581 FILLER_12_620
*582 FILLER_12_627
*583 FILLER_12_634
*584 FILLER_12_641
*585 FILLER_12_648
*586 FILLER_12_655
*587 FILLER_12_662
*588 FILLER_12_669
*589 FILLER_12_67
*590 FILLER_12_676
*591 FILLER_12_683
*592 FILLER_12_690
*593 FILLER_12_697
*594 FILLER_12_704
*595 FILLER_12_711
*596 FILLER_12_718
*597 FILLER_12_725
*598 FILLER_12_732
*599 FILLER_12_739
*600 FILLER_12_74
*601 FILLER_12_746
*602 FILLER_12_753
*603 FILLER_12_760
*604 FILLER_12_767
*605 FILLER_12_774
*606 FILLER_12_781
*607 FILLER_12_788
*608 FILLER_12_795
*609 FILLER_12_802
*610 FILLER_12_809
*611 FILLER_12_81
*612 FILLER_12_816
*613 FILLER_12_823
*614 FILLER_12_830
*615 FILLER_12_837
*616 FILLER_12_844
*617 FILLER_12_851
*618 FILLER_12_858
*619 FILLER_12_865
*620 FILLER_12_872
*621 FILLER_12_879
*622 FILLER_12_88
*623 FILLER_12_886
*624 FILLER_12_893
*625 FILLER_12_900
*626 FILLER_12_907
*627 FILLER_12_914
*628 FILLER_12_921
*629 FILLER_12_928
*630 FILLER_12_935
*631 FILLER_12_942
*632 FILLER_12_949
*633 FILLER_12_95
*634 FILLER_12_956
*635 FILLER_12_963
*636 FILLER_12_970
*637 FILLER_12_977
*638 FILLER_12_984
*639 FILLER_12_991
*640 FILLER_12_998
*641 FILLER_13_1005
*642 FILLER_13_1012
*643 FILLER_13_1019
*644 FILLER_13_102
*645 FILLER_13_1026
*646 FILLER_13_1028
*647 FILLER_13_109
*648 FILLER_13_11
*649 FILLER_13_116
*650 FILLER_13_123
*651 FILLER_13_130
*652 FILLER_13_137
*653 FILLER_13_144
*654 FILLER_13_151
*655 FILLER_13_158
*656 FILLER_13_165
*657 FILLER_13_172
*658 FILLER_13_179
*659 FILLER_13_18
*660 FILLER_13_186
*661 FILLER_13_193
*662 FILLER_13_200
*663 FILLER_13_207
*664 FILLER_13_214
*665 FILLER_13_221
*666 FILLER_13_228
*667 FILLER_13_235
*668 FILLER_13_242
*669 FILLER_13_249
*670 FILLER_13_25
*671 FILLER_13_256
*672 FILLER_13_263
*673 FILLER_13_270
*674 FILLER_13_277
*675 FILLER_13_284
*676 FILLER_13_291
*677 FILLER_13_298
*678 FILLER_13_305
*679 FILLER_13_312
*680 FILLER_13_319
*681 FILLER_13_32
*682 FILLER_13_326
*683 FILLER_13_333
*684 FILLER_13_340
*685 FILLER_13_347
*686 FILLER_13_354
*687 FILLER_13_361
*688 FILLER_13_368
*689 FILLER_13_375
*690 FILLER_13_382
*691 FILLER_13_389
*692 FILLER_13_39
*693 FILLER_13_396
*694 FILLER_13_4
*695 FILLER_13_403
*696 FILLER_13_410
*697 FILLER_13_417
*698 FILLER_13_424
*699 FILLER_13_431
*700 FILLER_13_438
*701 FILLER_13_445
*702 FILLER_13_452
*703 FILLER_13_459
*704 FILLER_13_46
*705 FILLER_13_466
*706 FILLER_13_473
*707 FILLER_13_480
*708 FILLER_13_487
*709 FILLER_13_494
*710 FILLER_13_501
*711 FILLER_13_508
*712 FILLER_13_515
*713 FILLER_13_522
*714 FILLER_13_529
*715 FILLER_13_53
*716 FILLER_13_536
*717 FILLER_13_543
*718 FILLER_13_550
*719 FILLER_13_557
*720 FILLER_13_564
*721 FILLER_13_571
*722 FILLER_13_578
*723 FILLER_13_585
*724 FILLER_13_592
*725 FILLER_13_599
*726 FILLER_13_60
*727 FILLER_13_606
*728 FILLER_13_613
*729 FILLER_13_620
*730 FILLER_13_627
*731 FILLER_13_634
*732 FILLER_13_641
*733 FILLER_13_648
*734 FILLER_13_655
*735 FILLER_13_662
*736 FILLER_13_669
*737 FILLER_13_67
*738 FILLER_13_676
*739 FILLER_13_683
*740 FILLER_13_690
*741 FILLER_13_697
*742 FILLER_13_704
*743 FILLER_13_711
*744 FILLER_13_718
*745 FILLER_13_725
*746 FILLER_13_732
*747 FILLER_13_739
*748 FILLER_13_74
*749 FILLER_13_746
*750 FILLER_13_753
*751 FILLER_13_760
*752 FILLER_13_767
*753 FILLER_13_774
*754 FILLER_13_781
*755 FILLER_13_788
*756 FILLER_13_795
*757 FILLER_13_802
*758 FILLER_13_809
*759 FILLER_13_81
*760 FILLER_13_816
*761 FILLER_13_823
*762 FILLER_13_830
*763 FILLER_13_837
*764 FILLER_13_844
*765 FILLER_13_851
*766 FILLER_13_858
*767 FILLER_13_865
*768 FILLER_13_872
*769 FILLER_13_879
*770 FILLER_13_88
*771 FILLER_13_886
*772 FILLER_13_893
*773 FILLER_13_900
*774 FILLER_13_907
*775 FILLER_13_914
*776 FILLER_13_921
*777 FILLER_13_928
*778 FILLER_13_935
*779 FILLER_13_942
*780 FILLER_13_949
*781 FILLER_13_95
*782 FILLER_13_956
*783 FILLER_13_963
*784 FILLER_13_970
*785 FILLER_13_977
*786 FILLER_13_984
*787 FILLER_13_991
*788 FILLER_13_998
*789 FILLER_14_1005
*790 FILLER_14_1012
*791 FILLER_14_1019
*792 FILLER_14_102
*793 FILLER_14_1026
*794 FILLER_14_1028
*795 FILLER_14_109
*796 FILLER_14_11
*797 FILLER_14_116
*798 FILLER_14_123
*799 FILLER_14_130
*800 FILLER_14_137
*801 FILLER_14_144
*802 FILLER_14_151
*803 FILLER_14_158
*804 FILLER_14_165
*805 FILLER_14_172
*806 FILLER_14_179
*807 FILLER_14_18
*808 FILLER_14_186
*809 FILLER_14_193
*810 FILLER_14_200
*811 FILLER_14_207
*812 FILLER_14_214
*813 FILLER_14_221
*814 FILLER_14_228
*815 FILLER_14_235
*816 FILLER_14_242
*817 FILLER_14_249
*818 FILLER_14_25
*819 FILLER_14_256
*820 FILLER_14_263
*821 FILLER_14_270
*822 FILLER_14_277
*823 FILLER_14_284
*824 FILLER_14_291
*825 FILLER_14_298
*826 FILLER_14_305
*827 FILLER_14_312
*828 FILLER_14_319
*829 FILLER_14_32
*830 FILLER_14_326
*831 FILLER_14_333
*832 FILLER_14_340
*833 FILLER_14_347
*834 FILLER_14_354
*835 FILLER_14_361
*836 FILLER_14_368
*837 FILLER_14_375
*838 FILLER_14_382
*839 FILLER_14_389
*840 FILLER_14_39
*841 FILLER_14_396
*842 FILLER_14_4
*843 FILLER_14_403
*844 FILLER_14_410
*845 FILLER_14_417
*846 FILLER_14_424
*847 FILLER_14_431
*848 FILLER_14_438
*849 FILLER_14_445
*850 FILLER_14_452
*851 FILLER_14_459
*852 FILLER_14_46
*853 FILLER_14_466
*854 FILLER_14_473
*855 FILLER_14_480
*856 FILLER_14_487
*857 FILLER_14_494
*858 FILLER_14_501
*859 FILLER_14_508
*860 FILLER_14_515
*861 FILLER_14_522
*862 FILLER_14_529
*863 FILLER_14_53
*864 FILLER_14_536
*865 FILLER_14_543
*866 FILLER_14_550
*867 FILLER_14_557
*868 FILLER_14_564
*869 FILLER_14_571
*870 FILLER_14_578
*871 FILLER_14_585
*872 FILLER_14_592
*873 FILLER_14_599
*874 FILLER_14_60
*875 FILLER_14_606
*876 FILLER_14_613
*877 FILLER_14_620
*878 FILLER_14_627
*879 FILLER_14_634
*880 FILLER_14_641
*881 FILLER_14_648
*882 FILLER_14_655
*883 FILLER_14_662
*884 FILLER_14_669
*885 FILLER_14_67
*886 FILLER_14_676
*887 FILLER_14_683
*888 FILLER_14_690
*889 FILLER_14_697
*890 FILLER_14_704
*891 FILLER_14_711
*892 FILLER_14_718
*893 FILLER_14_725
*894 FILLER_14_732
*895 FILLER_14_739
*896 FILLER_14_74
*897 FILLER_14_746
*898 FILLER_14_753
*899 FILLER_14_760
*900 FILLER_14_767
*901 FILLER_14_774
*902 FILLER_14_781
*903 FILLER_14_788
*904 FILLER_14_795
*905 FILLER_14_802
*906 FILLER_14_809
*907 FILLER_14_81
*908 FILLER_14_816
*909 FILLER_14_823
*910 FILLER_14_830
*911 FILLER_14_837
*912 FILLER_14_844
*913 FILLER_14_851
*914 FILLER_14_858
*915 FILLER_14_865
*916 FILLER_14_872
*917 FILLER_14_879
*918 FILLER_14_88
*919 FILLER_14_886
*920 FILLER_14_893
*921 FILLER_14_900
*922 FILLER_14_907
*923 FILLER_14_914
*924 FILLER_14_921
*925 FILLER_14_928
*926 FILLER_14_935
*927 FILLER_14_942
*928 FILLER_14_949
*929 FILLER_14_95
*930 FILLER_14_956
*931 FILLER_14_963
*932 FILLER_14_970
*933 FILLER_14_977
*934 FILLER_14_984
*935 FILLER_14_991
*936 FILLER_14_998
*937 FILLER_15_1005
*938 FILLER_15_1012
*939 FILLER_15_1019
*940 FILLER_15_102
*941 FILLER_15_1026
*942 FILLER_15_1028
*943 FILLER_15_109
*944 FILLER_15_11
*945 FILLER_15_116
*946 FILLER_15_123
*947 FILLER_15_130
*948 FILLER_15_137
*949 FILLER_15_144
*950 FILLER_15_151
*951 FILLER_15_158
*952 FILLER_15_165
*953 FILLER_15_172
*954 FILLER_15_179
*955 FILLER_15_18
*956 FILLER_15_186
*957 FILLER_15_193
*958 FILLER_15_200
*959 FILLER_15_207
*960 FILLER_15_214
*961 FILLER_15_221
*962 FILLER_15_228
*963 FILLER_15_235
*964 FILLER_15_242
*965 FILLER_15_249
*966 FILLER_15_25
*967 FILLER_15_256
*968 FILLER_15_263
*969 FILLER_15_270
*970 FILLER_15_277
*971 FILLER_15_284
*972 FILLER_15_291
*973 FILLER_15_298
*974 FILLER_15_305
*975 FILLER_15_312
*976 FILLER_15_319
*977 FILLER_15_32
*978 FILLER_15_326
*979 FILLER_15_333
*980 FILLER_15_340
*981 FILLER_15_347
*982 FILLER_15_354
*983 FILLER_15_361
*984 FILLER_15_368
*985 FILLER_15_375
*986 FILLER_15_382
*987 FILLER_15_389
*988 FILLER_15_39
*989 FILLER_15_396
*990 FILLER_15_4
*991 FILLER_15_403
*992 FILLER_15_410
*993 FILLER_15_417
*994 FILLER_15_424
*995 FILLER_15_431
*996 FILLER_15_438
*997 FILLER_15_445
*998 FILLER_15_452
*999 FILLER_15_459
*1000 FILLER_15_46
*1001 FILLER_15_466
*1002 FILLER_15_473
*1003 FILLER_15_480
*1004 FILLER_15_487
*1005 FILLER_15_494
*1006 FILLER_15_501
*1007 FILLER_15_508
*1008 FILLER_15_515
*1009 FILLER_15_522
*1010 FILLER_15_529
*1011 FILLER_15_53
*1012 FILLER_15_536
*1013 FILLER_15_543
*1014 FILLER_15_550
*1015 FILLER_15_557
*1016 FILLER_15_564
*1017 FILLER_15_571
*1018 FILLER_15_578
*1019 FILLER_15_585
*1020 FILLER_15_592
*1021 FILLER_15_599
*1022 FILLER_15_60
*1023 FILLER_15_606
*1024 FILLER_15_613
*1025 FILLER_15_620
*1026 FILLER_15_627
*1027 FILLER_15_634
*1028 FILLER_15_641
*1029 FILLER_15_648
*1030 FILLER_15_655
*1031 FILLER_15_662
*1032 FILLER_15_669
*1033 FILLER_15_67
*1034 FILLER_15_676
*1035 FILLER_15_683
*1036 FILLER_15_690
*1037 FILLER_15_697
*1038 FILLER_15_704
*1039 FILLER_15_711
*1040 FILLER_15_718
*1041 FILLER_15_725
*1042 FILLER_15_732
*1043 FILLER_15_739
*1044 FILLER_15_74
*1045 FILLER_15_746
*1046 FILLER_15_753
*1047 FILLER_15_760
*1048 FILLER_15_767
*1049 FILLER_15_774
*1050 FILLER_15_781
*1051 FILLER_15_788
*1052 FILLER_15_795
*1053 FILLER_15_802
*1054 FILLER_15_809
*1055 FILLER_15_81
*1056 FILLER_15_816
*1057 FILLER_15_823
*1058 FILLER_15_830
*1059 FILLER_15_837
*1060 FILLER_15_844
*1061 FILLER_15_851
*1062 FILLER_15_858
*1063 FILLER_15_865
*1064 FILLER_15_872
*1065 FILLER_15_879
*1066 FILLER_15_88
*1067 FILLER_15_886
*1068 FILLER_15_893
*1069 FILLER_15_900
*1070 FILLER_15_907
*1071 FILLER_15_914
*1072 FILLER_15_921
*1073 FILLER_15_928
*1074 FILLER_15_935
*1075 FILLER_15_942
*1076 FILLER_15_949
*1077 FILLER_15_95
*1078 FILLER_15_956
*1079 FILLER_15_963
*1080 FILLER_15_970
*1081 FILLER_15_977
*1082 FILLER_15_984
*1083 FILLER_15_991
*1084 FILLER_15_998
*1085 FILLER_16_1005
*1086 FILLER_16_1012
*1087 FILLER_16_1019
*1088 FILLER_16_102
*1089 FILLER_16_1026
*1090 FILLER_16_1028
*1091 FILLER_16_109
*1092 FILLER_16_11
*1093 FILLER_16_116
*1094 FILLER_16_123
*1095 FILLER_16_130
*1096 FILLER_16_137
*1097 FILLER_16_144
*1098 FILLER_16_151
*1099 FILLER_16_158
*1100 FILLER_16_165
*1101 FILLER_16_172
*1102 FILLER_16_179
*1103 FILLER_16_18
*1104 FILLER_16_186
*1105 FILLER_16_193
*1106 FILLER_16_200
*1107 FILLER_16_207
*1108 FILLER_16_214
*1109 FILLER_16_221
*1110 FILLER_16_228
*1111 FILLER_16_235
*1112 FILLER_16_242
*1113 FILLER_16_249
*1114 FILLER_16_25
*1115 FILLER_16_256
*1116 FILLER_16_263
*1117 FILLER_16_270
*1118 FILLER_16_277
*1119 FILLER_16_284
*1120 FILLER_16_291
*1121 FILLER_16_298
*1122 FILLER_16_305
*1123 FILLER_16_312
*1124 FILLER_16_319
*1125 FILLER_16_32
*1126 FILLER_16_326
*1127 FILLER_16_333
*1128 FILLER_16_340
*1129 FILLER_16_347
*1130 FILLER_16_354
*1131 FILLER_16_361
*1132 FILLER_16_368
*1133 FILLER_16_375
*1134 FILLER_16_382
*1135 FILLER_16_389
*1136 FILLER_16_39
*1137 FILLER_16_396
*1138 FILLER_16_4
*1139 FILLER_16_403
*1140 FILLER_16_410
*1141 FILLER_16_417
*1142 FILLER_16_424
*1143 FILLER_16_431
*1144 FILLER_16_438
*1145 FILLER_16_445
*1146 FILLER_16_452
*1147 FILLER_16_459
*1148 FILLER_16_46
*1149 FILLER_16_466
*1150 FILLER_16_473
*1151 FILLER_16_480
*1152 FILLER_16_487
*1153 FILLER_16_494
*1154 FILLER_16_501
*1155 FILLER_16_508
*1156 FILLER_16_515
*1157 FILLER_16_522
*1158 FILLER_16_529
*1159 FILLER_16_53
*1160 FILLER_16_536
*1161 FILLER_16_543
*1162 FILLER_16_550
*1163 FILLER_16_557
*1164 FILLER_16_564
*1165 FILLER_16_571
*1166 FILLER_16_578
*1167 FILLER_16_585
*1168 FILLER_16_592
*1169 FILLER_16_599
*1170 FILLER_16_60
*1171 FILLER_16_606
*1172 FILLER_16_613
*1173 FILLER_16_620
*1174 FILLER_16_627
*1175 FILLER_16_634
*1176 FILLER_16_641
*1177 FILLER_16_648
*1178 FILLER_16_655
*1179 FILLER_16_662
*1180 FILLER_16_669
*1181 FILLER_16_67
*1182 FILLER_16_676
*1183 FILLER_16_683
*1184 FILLER_16_690
*1185 FILLER_16_697
*1186 FILLER_16_704
*1187 FILLER_16_711
*1188 FILLER_16_718
*1189 FILLER_16_725
*1190 FILLER_16_732
*1191 FILLER_16_739
*1192 FILLER_16_74
*1193 FILLER_16_746
*1194 FILLER_16_753
*1195 FILLER_16_760
*1196 FILLER_16_767
*1197 FILLER_16_774
*1198 FILLER_16_781
*1199 FILLER_16_788
*1200 FILLER_16_795
*1201 FILLER_16_802
*1202 FILLER_16_809
*1203 FILLER_16_81
*1204 FILLER_16_816
*1205 FILLER_16_823
*1206 FILLER_16_830
*1207 FILLER_16_837
*1208 FILLER_16_844
*1209 FILLER_16_851
*1210 FILLER_16_858
*1211 FILLER_16_865
*1212 FILLER_16_872
*1213 FILLER_16_879
*1214 FILLER_16_88
*1215 FILLER_16_886
*1216 FILLER_16_893
*1217 FILLER_16_900
*1218 FILLER_16_907
*1219 FILLER_16_914
*1220 FILLER_16_921
*1221 FILLER_16_928
*1222 FILLER_16_935
*1223 FILLER_16_942
*1224 FILLER_16_949
*1225 FILLER_16_95
*1226 FILLER_16_956
*1227 FILLER_16_963
*1228 FILLER_16_970
*1229 FILLER_16_977
*1230 FILLER_16_984
*1231 FILLER_16_991
*1232 FILLER_16_998
*1233 FILLER_17_0
*1234 FILLER_17_1001
*1235 FILLER_17_1008
*1236 FILLER_17_1015
*1237 FILLER_17_1022
*1238 FILLER_17_105
*1239 FILLER_17_112
*1240 FILLER_17_119
*1241 FILLER_17_126
*1242 FILLER_17_133
*1243 FILLER_17_14
*1244 FILLER_17_140
*1245 FILLER_17_147
*1246 FILLER_17_154
*1247 FILLER_17_161
*1248 FILLER_17_168
*1249 FILLER_17_175
*1250 FILLER_17_182
*1251 FILLER_17_189
*1252 FILLER_17_196
*1253 FILLER_17_203
*1254 FILLER_17_21
*1255 FILLER_17_210
*1256 FILLER_17_217
*1257 FILLER_17_224
*1258 FILLER_17_231
*1259 FILLER_17_238
*1260 FILLER_17_245
*1261 FILLER_17_252
*1262 FILLER_17_259
*1263 FILLER_17_266
*1264 FILLER_17_273
*1265 FILLER_17_28
*1266 FILLER_17_280
*1267 FILLER_17_287
*1268 FILLER_17_294
*1269 FILLER_17_301
*1270 FILLER_17_308
*1271 FILLER_17_315
*1272 FILLER_17_322
*1273 FILLER_17_329
*1274 FILLER_17_336
*1275 FILLER_17_343
*1276 FILLER_17_35
*1277 FILLER_17_350
*1278 FILLER_17_357
*1279 FILLER_17_364
*1280 FILLER_17_371
*1281 FILLER_17_378
*1282 FILLER_17_385
*1283 FILLER_17_392
*1284 FILLER_17_399
*1285 FILLER_17_406
*1286 FILLER_17_413
*1287 FILLER_17_42
*1288 FILLER_17_420
*1289 FILLER_17_427
*1290 FILLER_17_434
*1291 FILLER_17_441
*1292 FILLER_17_448
*1293 FILLER_17_455
*1294 FILLER_17_462
*1295 FILLER_17_469
*1296 FILLER_17_476
*1297 FILLER_17_483
*1298 FILLER_17_49
*1299 FILLER_17_490
*1300 FILLER_17_497
*1301 FILLER_17_504
*1302 FILLER_17_511
*1303 FILLER_17_518
*1304 FILLER_17_525
*1305 FILLER_17_532
*1306 FILLER_17_539
*1307 FILLER_17_546
*1308 FILLER_17_553
*1309 FILLER_17_56
*1310 FILLER_17_560
*1311 FILLER_17_567
*1312 FILLER_17_574
*1313 FILLER_17_581
*1314 FILLER_17_588
*1315 FILLER_17_595
*1316 FILLER_17_602
*1317 FILLER_17_609
*1318 FILLER_17_616
*1319 FILLER_17_623
*1320 FILLER_17_63
*1321 FILLER_17_630
*1322 FILLER_17_637
*1323 FILLER_17_644
*1324 FILLER_17_651
*1325 FILLER_17_658
*1326 FILLER_17_665
*1327 FILLER_17_672
*1328 FILLER_17_679
*1329 FILLER_17_686
*1330 FILLER_17_693
*1331 FILLER_17_7
*1332 FILLER_17_70
*1333 FILLER_17_700
*1334 FILLER_17_707
*1335 FILLER_17_714
*1336 FILLER_17_721
*1337 FILLER_17_728
*1338 FILLER_17_735
*1339 FILLER_17_742
*1340 FILLER_17_749
*1341 FILLER_17_756
*1342 FILLER_17_763
*1343 FILLER_17_77
*1344 FILLER_17_770
*1345 FILLER_17_777
*1346 FILLER_17_784
*1347 FILLER_17_791
*1348 FILLER_17_798
*1349 FILLER_17_805
*1350 FILLER_17_812
*1351 FILLER_17_819
*1352 FILLER_17_826
*1353 FILLER_17_833
*1354 FILLER_17_84
*1355 FILLER_17_840
*1356 FILLER_17_847
*1357 FILLER_17_854
*1358 FILLER_17_861
*1359 FILLER_17_868
*1360 FILLER_17_875
*1361 FILLER_17_882
*1362 FILLER_17_889
*1363 FILLER_17_896
*1364 FILLER_17_903
*1365 FILLER_17_91
*1366 FILLER_17_910
*1367 FILLER_17_917
*1368 FILLER_17_924
*1369 FILLER_17_931
*1370 FILLER_17_938
*1371 FILLER_17_945
*1372 FILLER_17_952
*1373 FILLER_17_959
*1374 FILLER_17_966
*1375 FILLER_17_973
*1376 FILLER_17_98
*1377 FILLER_17_980
*1378 FILLER_17_987
*1379 FILLER_17_994
*1380 FILLER_18_1005
*1381 FILLER_18_1012
*1382 FILLER_18_1019
*1383 FILLER_18_102
*1384 FILLER_18_1026
*1385 FILLER_18_1028
*1386 FILLER_18_109
*1387 FILLER_18_11
*1388 FILLER_18_116
*1389 FILLER_18_123
*1390 FILLER_18_130
*1391 FILLER_18_137
*1392 FILLER_18_144
*1393 FILLER_18_151
*1394 FILLER_18_158
*1395 FILLER_18_165
*1396 FILLER_18_172
*1397 FILLER_18_179
*1398 FILLER_18_18
*1399 FILLER_18_186
*1400 FILLER_18_193
*1401 FILLER_18_200
*1402 FILLER_18_207
*1403 FILLER_18_214
*1404 FILLER_18_221
*1405 FILLER_18_228
*1406 FILLER_18_235
*1407 FILLER_18_242
*1408 FILLER_18_249
*1409 FILLER_18_25
*1410 FILLER_18_256
*1411 FILLER_18_263
*1412 FILLER_18_270
*1413 FILLER_18_277
*1414 FILLER_18_284
*1415 FILLER_18_291
*1416 FILLER_18_298
*1417 FILLER_18_305
*1418 FILLER_18_312
*1419 FILLER_18_319
*1420 FILLER_18_32
*1421 FILLER_18_326
*1422 FILLER_18_333
*1423 FILLER_18_340
*1424 FILLER_18_347
*1425 FILLER_18_354
*1426 FILLER_18_361
*1427 FILLER_18_368
*1428 FILLER_18_375
*1429 FILLER_18_382
*1430 FILLER_18_389
*1431 FILLER_18_39
*1432 FILLER_18_396
*1433 FILLER_18_4
*1434 FILLER_18_403
*1435 FILLER_18_410
*1436 FILLER_18_417
*1437 FILLER_18_424
*1438 FILLER_18_431
*1439 FILLER_18_438
*1440 FILLER_18_445
*1441 FILLER_18_452
*1442 FILLER_18_459
*1443 FILLER_18_46
*1444 FILLER_18_466
*1445 FILLER_18_473
*1446 FILLER_18_480
*1447 FILLER_18_487
*1448 FILLER_18_494
*1449 FILLER_18_501
*1450 FILLER_18_508
*1451 FILLER_18_515
*1452 FILLER_18_522
*1453 FILLER_18_529
*1454 FILLER_18_53
*1455 FILLER_18_536
*1456 FILLER_18_543
*1457 FILLER_18_550
*1458 FILLER_18_557
*1459 FILLER_18_564
*1460 FILLER_18_571
*1461 FILLER_18_578
*1462 FILLER_18_585
*1463 FILLER_18_592
*1464 FILLER_18_599
*1465 FILLER_18_60
*1466 FILLER_18_606
*1467 FILLER_18_613
*1468 FILLER_18_620
*1469 FILLER_18_627
*1470 FILLER_18_634
*1471 FILLER_18_641
*1472 FILLER_18_648
*1473 FILLER_18_655
*1474 FILLER_18_662
*1475 FILLER_18_669
*1476 FILLER_18_67
*1477 FILLER_18_676
*1478 FILLER_18_683
*1479 FILLER_18_690
*1480 FILLER_18_697
*1481 FILLER_18_704
*1482 FILLER_18_711
*1483 FILLER_18_718
*1484 FILLER_18_725
*1485 FILLER_18_732
*1486 FILLER_18_739
*1487 FILLER_18_74
*1488 FILLER_18_746
*1489 FILLER_18_753
*1490 FILLER_18_760
*1491 FILLER_18_767
*1492 FILLER_18_774
*1493 FILLER_18_781
*1494 FILLER_18_788
*1495 FILLER_18_795
*1496 FILLER_18_802
*1497 FILLER_18_809
*1498 FILLER_18_81
*1499 FILLER_18_816
*1500 FILLER_18_823
*1501 FILLER_18_830
*1502 FILLER_18_837
*1503 FILLER_18_844
*1504 FILLER_18_851
*1505 FILLER_18_858
*1506 FILLER_18_865
*1507 FILLER_18_872
*1508 FILLER_18_879
*1509 FILLER_18_88
*1510 FILLER_18_886
*1511 FILLER_18_893
*1512 FILLER_18_900
*1513 FILLER_18_907
*1514 FILLER_18_914
*1515 FILLER_18_921
*1516 FILLER_18_928
*1517 FILLER_18_935
*1518 FILLER_18_942
*1519 FILLER_18_949
*1520 FILLER_18_95
*1521 FILLER_18_956
*1522 FILLER_18_963
*1523 FILLER_18_970
*1524 FILLER_18_977
*1525 FILLER_18_984
*1526 FILLER_18_991
*1527 FILLER_18_998
*1528 FILLER_19_1005
*1529 FILLER_19_1012
*1530 FILLER_19_1019
*1531 FILLER_19_102
*1532 FILLER_19_1026
*1533 FILLER_19_1028
*1534 FILLER_19_109
*1535 FILLER_19_11
*1536 FILLER_19_116
*1537 FILLER_19_123
*1538 FILLER_19_130
*1539 FILLER_19_137
*1540 FILLER_19_144
*1541 FILLER_19_151
*1542 FILLER_19_158
*1543 FILLER_19_165
*1544 FILLER_19_172
*1545 FILLER_19_179
*1546 FILLER_19_18
*1547 FILLER_19_186
*1548 FILLER_19_193
*1549 FILLER_19_200
*1550 FILLER_19_207
*1551 FILLER_19_214
*1552 FILLER_19_221
*1553 FILLER_19_228
*1554 FILLER_19_235
*1555 FILLER_19_242
*1556 FILLER_19_249
*1557 FILLER_19_25
*1558 FILLER_19_256
*1559 FILLER_19_263
*1560 FILLER_19_270
*1561 FILLER_19_277
*1562 FILLER_19_284
*1563 FILLER_19_291
*1564 FILLER_19_298
*1565 FILLER_19_305
*1566 FILLER_19_312
*1567 FILLER_19_319