*SPEF "ieee 1481-1999"
*DESIGN "heichips25_pudding"
*DATE "04:47:57 Tuesday March 17, 2026"
*VENDOR "The OpenROAD Project"
*PROGRAM "OpenROAD"
*VERSION "dfc4f595dfb2e1c346492ff1f0274abb28725acf"
*DESIGN_FLOW "NAME_SCOPE LOCAL" "PIN_CAP NONE"
*DIVIDER /
*DELIMITER :
*BUS_DELIMITER []
*T_UNIT 1 NS
*C_UNIT 1 PF
*R_UNIT 1 OHM
*L_UNIT 1 HENRY

*NAME_MAP
*3 clk
*4 ena
*5 i_in
*6 i_out
*7 rst_n
*8 ui_in[0]
*9 ui_in[1]
*10 ui_in[2]
*11 ui_in[3]
*12 ui_in[4]
*13 ui_in[5]
*14 ui_in[6]
*15 ui_in[7]
*16 uio_in[0]
*17 uio_in[1]
*18 uio_in[2]
*19 uio_in[3]
*20 uio_in[4]
*21 uio_in[5]
*22 uio_in[6]
*23 uio_in[7]
*24 uio_oe[0]
*25 uio_oe[1]
*26 uio_oe[2]
*27 uio_oe[3]
*28 uio_oe[4]
*29 uio_oe[5]
*30 uio_oe[6]
*31 uio_oe[7]
*32 uio_out[0]
*33 uio_out[1]
*34 uio_out[2]
*35 uio_out[3]
*36 uio_out[4]
*37 uio_out[5]
*38 uio_out[6]
*39 uio_out[7]
*40 uo_out[0]
*41 uo_out[1]
*42 uo_out[2]
*43 uo_out[3]
*44 uo_out[4]
*45 uo_out[5]
*46 uo_out[6]
*47 uo_out[7]
*48 _0000_
*49 _0001_
*50 _0002_
*51 _0003_
*52 _0004_
*53 _0005_
*54 _0006_
*55 _0007_
*56 _0008_
*57 _0009_
*58 _0010_
*59 _0011_
*60 _0012_
*61 _0013_
*62 _0014_
*63 _0015_
*64 _0016_
*65 _0017_
*66 _0018_
*67 _0019_
*68 _0020_
*69 _0021_
*70 _0022_
*71 _0023_
*72 _0024_
*73 _0025_
*74 _0026_
*75 _0027_
*76 _0028_
*77 _0029_
*78 _0030_
*79 _0031_
*80 _0032_
*81 _0033_
*82 _0034_
*83 _0035_
*84 _0036_
*85 _0037_
*86 _0038_
*87 _0039_
*88 _0040_
*89 _0041_
*90 _0042_
*91 _0043_
*92 _0044_
*93 _0045_
*94 _0046_
*95 _0047_
*96 _0048_
*97 _0049_
*98 _0050_
*99 _0051_
*100 _0052_
*101 _0053_
*102 _0054_
*103 _0055_
*104 _0056_
*105 _0057_
*106 _0058_
*107 _0059_
*108 _0060_
*109 _0061_
*110 _0062_
*111 _0063_
*112 _0064_
*113 _0065_
*114 _0066_
*115 _0067_
*116 _0068_
*117 _0069_
*118 _0070_
*119 _0071_
*120 _0072_
*121 _0073_
*122 _0074_
*123 _0075_
*124 _0076_
*125 _0077_
*126 _0078_
*127 _0079_
*128 _0080_
*129 _0081_
*130 _0082_
*131 _0083_
*132 _0084_
*133 _0085_
*134 _0086_
*135 _0087_
*136 _0088_
*137 _0089_
*138 _0090_
*139 _0091_
*140 _0092_
*141 _0093_
*142 _0094_
*143 _0095_
*144 _0096_
*145 _0097_
*146 _0098_
*147 _0099_
*148 _0100_
*149 _0101_
*150 _0102_
*151 _0103_
*152 _0104_
*153 _0105_
*154 _0106_
*155 _0107_
*156 _0108_
*157 _0109_
*158 _0110_
*159 _0111_
*160 _0112_
*161 _0113_
*162 _0114_
*163 _0115_
*164 _0116_
*165 _0117_
*166 _0118_
*167 _0119_
*168 _0120_
*169 _0121_
*170 _0122_
*171 _0123_
*172 _0124_
*173 _0125_
*174 _0126_
*175 _0127_
*176 _0128_
*177 _0129_
*178 _0130_
*179 _0131_
*180 _0132_
*181 _0133_
*182 _0134_
*183 _0135_
*184 _0136_
*185 _0137_
*186 _0138_
*187 _0139_
*188 _0140_
*189 _0141_
*190 _0142_
*191 _0143_
*192 _0144_
*193 _0145_
*194 _0146_
*195 _0147_
*196 _0148_
*197 _0149_
*198 _0150_
*199 _0151_
*200 _0152_
*201 _0153_
*202 _0154_
*203 _0155_
*204 _0156_
*205 _0157_
*206 _0158_
*207 _0159_
*208 _0160_
*209 _0161_
*210 _0162_
*211 _0163_
*212 _0164_
*213 _0165_
*214 _0166_
*215 _0167_
*216 _0168_
*217 _0169_
*218 _0170_
*219 _0171_
*220 _0172_
*221 _0173_
*222 _0174_
*223 _0175_
*224 _0176_
*225 _0177_
*226 _0178_
*227 _0179_
*228 _0180_
*229 _0181_
*230 _0182_
*231 _0183_
*232 _0184_
*233 _0185_
*234 _0186_
*235 _0187_
*236 _0188_
*237 _0189_
*238 _0190_
*239 _0191_
*240 _0192_
*241 _0193_
*242 _0194_
*243 _0195_
*244 _0196_
*245 _0197_
*246 _0198_
*247 _0199_
*248 _0200_
*249 _0201_
*250 _0202_
*251 _0203_
*252 _0204_
*253 _0205_
*254 _0206_
*255 _0207_
*256 _0208_
*257 _0209_
*258 _0210_
*259 _0211_
*260 _0212_
*261 _0213_
*262 _0214_
*263 _0215_
*264 _0216_
*265 _0217_
*266 _0218_
*267 _0219_
*268 _0220_
*269 _0221_
*270 _0222_
*271 _0223_
*272 _0224_
*273 _0225_
*274 _0226_
*275 _0227_
*276 _0228_
*277 _0229_
*278 _0230_
*279 _0231_
*280 _0232_
*281 _0233_
*282 _0234_
*283 _0235_
*284 _0236_
*285 _0237_
*286 _0238_
*287 _0239_
*288 _0240_
*289 _0241_
*290 _0242_
*291 _0243_
*292 _0244_
*293 _0245_
*294 _0246_
*295 _0247_
*296 _0248_
*297 _0249_
*298 _0250_
*299 _0251_
*300 _0252_
*301 _0253_
*302 _0254_
*303 _0255_
*304 _0256_
*305 _0257_
*306 _0258_
*307 _0259_
*308 _0260_
*309 _0261_
*310 _0262_
*311 _0263_
*312 _0264_
*313 _0265_
*314 _0266_
*315 _0267_
*316 _0268_
*317 _0269_
*318 _0270_
*319 _0271_
*320 _0272_
*321 _0273_
*322 _0274_
*323 _0275_
*324 _0276_
*325 _0277_
*326 _0278_
*327 _0279_
*328 _0280_
*329 _0281_
*330 _0282_
*331 _0283_
*332 _0284_
*333 _0285_
*334 _0286_
*335 _0287_
*336 _0288_
*337 _0289_
*338 _0290_
*339 _0291_
*340 _0292_
*341 _0293_
*342 _0294_
*343 _0295_
*344 _0296_
*345 _0297_
*346 _0298_
*347 _0299_
*348 _0300_
*349 _0301_
*350 _0302_
*351 _0303_
*352 _0304_
*353 _0305_
*354 _0306_
*355 _0307_
*356 _0308_
*357 _0309_
*358 _0310_
*359 _0311_
*360 _0312_
*361 _0313_
*362 _0314_
*363 _0315_
*364 _0316_
*365 _0317_
*366 _0318_
*367 _0319_
*368 _0320_
*369 _0321_
*370 _0322_
*371 _0323_
*372 _0324_
*373 _0325_
*374 _0326_
*375 _0327_
*376 _0328_
*377 _0329_
*378 _0330_
*379 _0331_
*380 _0332_
*381 _0333_
*382 _0334_
*383 _0335_
*384 _0336_
*385 _0337_
*386 _0338_
*387 _0339_
*388 _0340_
*389 _0341_
*390 _0342_
*391 _0343_
*392 _0344_
*393 _0345_
*394 _0346_
*395 _0347_
*396 _0348_
*397 _0349_
*398 _0350_
*399 _0351_
*400 _0352_
*401 _0353_
*402 _0354_
*403 _0355_
*404 _0356_
*405 _0357_
*406 _0358_
*407 _0359_
*408 _0360_
*409 _0361_
*410 _0362_
*411 _0363_
*412 _0364_
*413 _0365_
*414 _0366_
*415 _0367_
*416 _0368_
*417 _0369_
*418 _0370_
*419 _0371_
*420 _0372_
*421 _0373_
*422 _0374_
*423 _0375_
*424 _0376_
*425 _0377_
*426 _0378_
*427 _0379_
*428 _0380_
*429 _0381_
*430 _0382_
*431 _0383_
*432 _0384_
*433 _0385_
*434 _0386_
*435 _0387_
*436 _0388_
*437 _0389_
*438 _0390_
*439 _0391_
*440 _0392_
*441 _0393_
*442 _0394_
*443 _0395_
*444 _0396_
*445 _0397_
*446 _0398_
*447 _0399_
*448 _0400_
*449 _0401_
*450 _0402_
*451 _0403_
*452 _0404_
*453 _0405_
*454 _0406_
*455 _0407_
*456 _0408_
*457 _0409_
*458 _0410_
*459 _0411_
*460 _0412_
*461 _0413_
*462 _0414_
*463 _0415_
*464 _0416_
*465 _0417_
*466 _0418_
*467 _0419_
*468 _0420_
*469 _0421_
*470 _0422_
*471 _0423_
*472 _0424_
*473 _0425_
*474 _0426_
*475 _0427_
*476 _0428_
*477 _0429_
*478 _0430_
*479 _0431_
*480 _0432_
*481 _0433_
*482 _0434_
*483 _0435_
*484 _0436_
*485 _0437_
*486 _0438_
*487 _0439_
*488 _0440_
*489 _0441_
*490 _0442_
*491 _0443_
*492 _0444_
*493 _0445_
*494 _0446_
*495 _0447_
*496 _0448_
*497 _0449_
*498 _0450_
*499 _0451_
*500 _0452_
*501 _0453_
*502 _0454_
*503 _0455_
*504 _0456_
*505 _0457_
*506 _0458_
*507 _0459_
*508 _0460_
*509 _0461_
*510 _0462_
*511 _0463_
*512 _0464_
*513 _0465_
*514 _0466_
*515 _0467_
*516 _0468_
*517 _0469_
*518 _0470_
*519 _0471_
*520 _0472_
*521 _0473_
*522 _0474_
*523 _0475_
*524 _0476_
*525 _0477_
*526 _0478_
*527 _0479_
*528 _0480_
*529 _0481_
*530 _0482_
*531 _0483_
*532 _0484_
*533 _0485_
*534 _0486_
*535 _0487_
*536 _0488_
*537 _0489_
*538 _0490_
*539 _0491_
*540 _0492_
*541 _0493_
*542 _0494_
*543 _0495_
*544 _0496_
*545 _0497_
*546 _0498_
*547 _0499_
*548 _0500_
*549 _0501_
*550 _0502_
*551 _0503_
*552 _0504_
*553 _0505_
*554 _0506_
*555 _0507_
*556 _0508_
*557 _0509_
*558 _0510_
*559 _0511_
*560 _0512_
*561 _0513_
*562 _0514_
*563 _0515_
*564 _0516_
*565 _0517_
*566 _0518_
*567 _0519_
*568 _0520_
*569 _0521_
*570 _0522_
*571 _0523_
*572 _0524_
*573 _0525_
*574 _0526_
*575 _0527_
*576 _0528_
*577 _0529_
*578 _0530_
*579 _0531_
*580 _0532_
*581 _0533_
*582 _0534_
*583 _0535_
*584 _0536_
*585 _0537_
*586 _0538_
*587 _0539_
*588 _0540_
*589 _0541_
*590 _0542_
*591 _0543_
*592 _0544_
*593 _0545_
*594 _0546_
*595 _0547_
*596 _0548_
*597 _0549_
*598 _0550_
*599 _0551_
*600 _0552_
*601 _0553_
*602 _0554_
*603 _0555_
*604 _0556_
*605 _0557_
*606 _0558_
*607 _0559_
*608 _0560_
*609 _0561_
*610 _0562_
*611 _0563_
*612 _0564_
*613 _0565_
*614 _0566_
*615 _0567_
*616 _0568_
*617 _0569_
*618 _0570_
*619 _0571_
*620 _0572_
*621 _0573_
*622 _0574_
*623 _0575_
*624 _0576_
*625 _0577_
*626 _0578_
*627 _0579_
*628 _0580_
*629 _0581_
*630 _0582_
*631 _0583_
*632 _0584_
*633 _0585_
*634 _0586_
*635 _0587_
*636 _0588_
*637 _0589_
*638 _0590_
*639 _0591_
*640 _0592_
*641 _0593_
*642 _0594_
*643 _0595_
*644 _0596_
*645 _0597_
*646 _0598_
*647 _0599_
*648 _0600_
*649 _0601_
*650 _0602_
*651 _0603_
*652 _0604_
*653 _0605_
*654 _0606_
*655 _0607_
*656 _0608_
*657 _0609_
*658 _0610_
*659 _0611_
*660 _0612_
*661 _0613_
*662 _0614_
*663 _0615_
*664 _0616_
*665 _0617_
*666 _0618_
*667 _0619_
*668 _0620_
*669 _0621_
*670 _0622_
*671 _0623_
*672 _0624_
*673 _0625_
*674 _0626_
*675 _0627_
*676 _0628_
*677 _0629_
*678 _0630_
*679 _0631_
*680 _0632_
*681 _0633_
*682 _0634_
*683 _0635_
*684 _0636_
*685 _0637_
*686 _0638_
*687 _0639_
*688 _0640_
*689 _0641_
*690 _0642_
*691 _0643_
*692 _0644_
*693 _0645_
*694 _0646_
*695 _0647_
*696 _0648_
*697 _0649_
*698 _0650_
*699 _0651_
*700 _0652_
*701 _0653_
*702 _0654_
*703 _0655_
*704 _0656_
*705 _0657_
*706 _0658_
*707 _0659_
*708 _0660_
*709 _0661_
*710 _0662_
*711 _0663_
*712 _0664_
*713 _0665_
*714 _0666_
*715 _0667_
*716 _0668_
*717 _0669_
*718 _0670_
*719 _0671_
*720 _0672_
*721 _0673_
*722 _0674_
*723 _0675_
*724 _0676_
*725 _0677_
*726 _0678_
*727 _0679_
*728 _0680_
*729 _0681_
*730 _0682_
*731 _0683_
*732 _0684_
*733 _0685_
*734 _0686_
*735 _0687_
*736 _0688_
*737 _0689_
*738 _0690_
*739 _0691_
*740 _0692_
*741 _0693_
*742 _0694_
*743 _0695_
*744 _0696_
*745 _0697_
*746 _0698_
*747 _0699_
*748 _0700_
*749 _0701_
*750 _0702_
*751 _0703_
*752 _0704_
*753 _0705_
*754 _0706_
*755 _0707_
*756 _0708_
*757 _0709_
*758 _0710_
*759 _0711_
*760 _0712_
*761 _0713_
*762 _0714_
*763 _0715_
*764 _0716_
*765 _0717_
*766 _0718_
*767 _0719_
*768 _0720_
*769 _0721_
*770 _0722_
*771 _0723_
*772 _0724_
*773 _0725_
*774 _0726_
*775 _0727_
*776 _0728_
*777 _0729_
*778 _0730_
*779 _0731_
*780 _0732_
*781 _0733_
*782 _0734_
*783 _0735_
*784 _0736_
*785 _0737_
*786 _0738_
*787 _0739_
*788 _0740_
*789 _0741_
*790 _0742_
*791 _0743_
*792 _0744_
*793 _0745_
*794 _0746_
*795 _0747_
*796 _0748_
*797 _0749_
*798 _0750_
*799 _0751_
*800 _0752_
*801 _0753_
*802 _0754_
*803 _0755_
*804 _0756_
*805 _0757_
*806 _0758_
*807 _0759_
*808 _0760_
*809 _0761_
*810 _0762_
*811 _0763_
*812 _0764_
*813 _0765_
*814 _0766_
*815 _0767_
*816 _0768_
*817 _0769_
*818 _0770_
*819 _0771_
*820 _0772_
*821 _0773_
*822 _0774_
*823 _0775_
*824 _0776_
*825 _0777_
*826 _0778_
*827 _0779_
*828 _0780_
*829 _0781_
*830 _0782_
*831 _0783_
*832 _0784_
*833 _0785_
*834 _0786_
*835 _0787_
*836 _0788_
*837 _0789_
*838 _0790_
*839 _0791_
*840 _0792_
*841 _0793_
*842 _0794_
*843 _0795_
*844 _0796_
*845 _0797_
*846 _0798_
*847 _0799_
*848 _0800_
*849 _0801_
*850 _0802_
*851 _0803_
*852 _0804_
*853 _0805_
*854 _0806_
*855 _0807_
*856 _0808_
*857 _0809_
*858 _0810_
*859 _0811_
*860 _0812_
*861 _0813_
*862 _0814_
*863 _0815_
*864 _0816_
*865 _0817_
*866 _0818_
*867 _0819_
*868 _0820_
*869 _0821_
*870 _0822_
*871 _0823_
*872 _0824_
*873 _0825_
*874 _0826_
*875 _0827_
*876 _0828_
*877 _0829_
*878 _0830_
*879 _0831_
*880 _0832_
*881 _0833_
*882 _0834_
*883 _0835_
*884 _0836_
*885 _0837_
*886 _0838_
*887 _0839_
*888 _0840_
*889 _0841_
*890 _0842_
*891 _0843_
*892 _0844_
*893 _0845_
*894 _0846_
*895 _0847_
*896 _0848_
*897 _0849_
*898 _0850_
*899 _0851_
*900 _0852_
*901 _0853_
*902 _0854_
*903 _0855_
*904 _0856_
*905 _0857_
*906 _0858_
*907 _0859_
*908 _0860_
*909 _0861_
*910 _0862_
*911 _0863_
*912 _0864_
*913 _0865_
*914 _0866_
*915 _0867_
*916 _0868_
*917 _0869_
*918 _0870_
*919 _0871_
*920 _0872_
*921 _0873_
*922 _0874_
*923 _0875_
*924 _0876_
*925 _0877_
*926 _0878_
*927 _0879_
*928 _0880_
*929 _0881_
*930 _0882_
*931 _0883_
*932 _0884_
*933 _0885_
*934 _0886_
*935 _0887_
*936 _0888_
*937 _0889_
*938 _0890_
*939 _0891_
*940 _0892_
*941 _0893_
*942 _0894_
*943 _0895_
*944 _0896_
*945 _0897_
*946 clknet_0_clk
*947 clknet_2_0__leaf_clk
*948 clknet_2_1__leaf_clk
*949 clknet_2_2__leaf_clk
*950 clknet_2_3__leaf_clk
*951 clknet_leaf_0_clk
*952 clknet_leaf_10_clk
*953 clknet_leaf_11_clk
*954 clknet_leaf_12_clk
*955 clknet_leaf_13_clk
*956 clknet_leaf_14_clk
*957 clknet_leaf_15_clk
*958 clknet_leaf_16_clk
*959 clknet_leaf_1_clk
*960 clknet_leaf_2_clk
*961 clknet_leaf_3_clk
*962 clknet_leaf_4_clk
*963 clknet_leaf_5_clk
*964 clknet_leaf_6_clk
*965 clknet_leaf_7_clk
*966 clknet_leaf_8_clk
*967 clknet_leaf_9_clk
*968 daisychain\[0\]
*969 daisychain\[100\]
*970 daisychain\[101\]
*971 daisychain\[102\]
*972 daisychain\[103\]
*973 daisychain\[104\]
*974 daisychain\[105\]
*975 daisychain\[106\]
*976 daisychain\[107\]
*977 daisychain\[108\]
*978 daisychain\[109\]
*979 daisychain\[10\]
*980 daisychain\[110\]
*981 daisychain\[111\]
*982 daisychain\[112\]
*983 daisychain\[113\]
*984 daisychain\[114\]
*985 daisychain\[115\]
*986 daisychain\[116\]
*987 daisychain\[117\]
*988 daisychain\[118\]
*989 daisychain\[119\]
*990 daisychain\[11\]
*991 daisychain\[120\]
*992 daisychain\[121\]
*993 daisychain\[122\]
*994 daisychain\[123\]
*995 daisychain\[124\]
*996 daisychain\[125\]
*997 daisychain\[126\]
*998 daisychain\[127\]
*999 daisychain\[12\]
*1000 daisychain\[13\]
*1001 daisychain\[14\]
*1002 daisychain\[15\]
*1003 daisychain\[16\]
*1004 daisychain\[17\]
*1005 daisychain\[18\]
*1006 daisychain\[19\]
*1007 daisychain\[1\]
*1008 daisychain\[20\]
*1009 daisychain\[21\]
*1010 daisychain\[22\]
*1011 daisychain\[23\]
*1012 daisychain\[24\]
*1013 daisychain\[25\]
*1014 daisychain\[26\]
*1015 daisychain\[27\]
*1016 daisychain\[28\]
*1017 daisychain\[29\]
*1018 daisychain\[2\]
*1019 daisychain\[30\]
*1020 daisychain\[31\]
*1021 daisychain\[32\]
*1022 daisychain\[33\]
*1023 daisychain\[34\]
*1024 daisychain\[35\]
*1025 daisychain\[36\]
*1026 daisychain\[37\]
*1027 daisychain\[38\]
*1028 daisychain\[39\]
*1029 daisychain\[3\]
*1030 daisychain\[40\]
*1031 daisychain\[41\]
*1032 daisychain\[42\]
*1033 daisychain\[43\]
*1034 daisychain\[44\]
*1035 daisychain\[45\]
*1036 daisychain\[46\]
*1037 daisychain\[47\]
*1038 daisychain\[48\]
*1039 daisychain\[49\]
*1040 daisychain\[4\]
*1041 daisychain\[50\]
*1042 daisychain\[51\]
*1043 daisychain\[52\]
*1044 daisychain\[53\]
*1045 daisychain\[54\]
*1046 daisychain\[55\]
*1047 daisychain\[56\]
*1048 daisychain\[57\]
*1049 daisychain\[58\]
*1050 daisychain\[59\]
*1051 daisychain\[5\]
*1052 daisychain\[60\]
*1053 daisychain\[61\]
*1054 daisychain\[62\]
*1055 daisychain\[63\]
*1056 daisychain\[64\]
*1057 daisychain\[65\]
*1058 daisychain\[66\]
*1059 daisychain\[67\]
*1060 daisychain\[68\]
*1061 daisychain\[69\]
*1062 daisychain\[6\]
*1063 daisychain\[70\]
*1064 daisychain\[71\]
*1065 daisychain\[72\]
*1066 daisychain\[73\]
*1067 daisychain\[74\]
*1068 daisychain\[75\]
*1069 daisychain\[76\]
*1070 daisychain\[77\]
*1071 daisychain\[78\]
*1072 daisychain\[79\]
*1073 daisychain\[7\]
*1074 daisychain\[80\]
*1075 daisychain\[81\]
*1076 daisychain\[82\]
*1077 daisychain\[83\]
*1078 daisychain\[84\]
*1079 daisychain\[85\]
*1080 daisychain\[86\]
*1081 daisychain\[87\]
*1082 daisychain\[88\]
*1083 daisychain\[89\]
*1084 daisychain\[8\]
*1085 daisychain\[90\]
*1086 daisychain\[91\]
*1087 daisychain\[92\]
*1088 daisychain\[93\]
*1089 daisychain\[94\]
*1090 daisychain\[95\]
*1091 daisychain\[96\]
*1092 daisychain\[97\]
*1093 daisychain\[98\]
*1094 daisychain\[99\]
*1095 daisychain\[9\]
*1096 digitalen0\.g\[0\]\.u\.OUTN
*1097 digitalen0\.g\[0\]\.u\.OUTP
*1098 digitalen0\.g\[1\]\.u\.OUTN
*1099 digitalen0\.g\[1\]\.u\.OUTP
*1100 digitalen0\.g\[2\]\.u\.OUTN
*1101 digitalen0\.g\[2\]\.u\.OUTP
*1102 digitalen0\.g\[3\]\.u\.OUTN
*1103 digitalen0\.g\[3\]\.u\.OUTP
*1104 digitalen1\.g\[0\]\.u\.OUTN
*1105 digitalen1\.g\[0\]\.u\.OUTP
*1106 digitalen1\.g\[1\]\.u\.OUTN
*1107 digitalen1\.g\[1\]\.u\.OUTP
*1108 digitalen1\.g\[2\]\.u\.OUTN
*1109 digitalen1\.g\[2\]\.u\.OUTP
*1110 digitalen1\.g\[3\]\.u\.OUTN
*1111 digitalen1\.g\[3\]\.u\.OUTP
*1112 digitalen2\.g\[0\]\.u\.OUTN
*1113 digitalen2\.g\[0\]\.u\.OUTP
*1114 digitalen2\.g\[1\]\.u\.OUTN
*1115 digitalen2\.g\[1\]\.u\.OUTP
*1116 digitalen2\.g\[2\]\.u\.OUTN
*1117 digitalen2\.g\[2\]\.u\.OUTP
*1118 digitalen2\.g\[3\]\.u\.OUTN
*1119 digitalen2\.g\[3\]\.u\.OUTP
*1120 digitalen3\.g\[0\]\.u\.OUTN
*1121 digitalen3\.g\[0\]\.u\.OUTP
*1122 digitalen3\.g\[1\]\.u\.OUTN
*1123 digitalen3\.g\[1\]\.u\.OUTP
*1124 digitalen3\.g\[2\]\.u\.OUTN
*1125 digitalen3\.g\[2\]\.u\.OUTP
*1126 digitalen3\.g\[3\]\.u\.OUTN
*1127 digitalen3\.g\[3\]\.u\.OUTP
*1128 iref\[0\]
*1129 iref\[1\]
*1130 iref\[2\]
*1131 iref\[3\]
*1132 iref\[4\]
*1133 iref\[5\]
*1134 iref\[6\]
*1135 iref\[7\]
*1136 net1
*1137 net10
*1138 net100
*1139 net101
*1140 net102
*1141 net103
*1142 net104
*1143 net105
*1144 net106
*1145 net107
*1146 net108
*1147 net109
*1148 net11
*1149 net110
*1150 net111
*1151 net112
*1152 net113
*1153 net114
*1154 net115
*1155 net116
*1156 net117
*1157 net118
*1158 net119
*1159 net12
*1160 net120
*1161 net121
*1162 net122
*1163 net123
*1164 net124
*1165 net125
*1166 net126
*1167 net127
*1168 net128
*1169 net129
*1170 net13
*1171 net130
*1172 net131
*1173 net132
*1174 net133
*1175 net134
*1176 net135
*1177 net136
*1178 net137
*1179 net138
*1180 net139
*1181 net14
*1182 net140
*1183 net141
*1184 net142
*1185 net143
*1186 net144
*1187 net145
*1188 net146
*1189 net147
*1190 net148
*1191 net149
*1192 net15
*1193 net150
*1194 net151
*1195 net152
*1196 net153
*1197 net154
*1198 net155
*1199 net156
*1200 net157
*1201 net158
*1202 net159
*1203 net16
*1204 net160
*1205 net161
*1206 net162
*1207 net163
*1208 net164
*1209 net165
*1210 net166
*1211 net167
*1212 net168
*1213 net169
*1214 net17
*1215 net170
*1216 net171
*1217 net172
*1218 net173
*1219 net174
*1220 net175
*1221 net176
*1222 net177
*1223 net178
*1224 net179
*1225 net18
*1226 net180
*1227 net181
*1228 net182
*1229 net183
*1230 net184
*1231 net185
*1232 net186
*1233 net187
*1234 net188
*1235 net189
*1236 net19
*1237 net190
*1238 net191
*1239 net192
*1240 net193
*1241 net194
*1242 net195
*1243 net196
*1244 net197
*1245 net198
*1246 net199
*1247 net2
*1248 net20
*1249 net200
*1250 net201
*1251 net202
*1252 net203
*1253 net204
*1254 net205
*1255 net206
*1256 net207
*1257 net208
*1258 net209
*1259 net21
*1260 net210
*1261 net211
*1262 net212
*1263 net213
*1264 net214
*1265 net215
*1266 net216
*1267 net217
*1268 net218
*1269 net219
*1270 net22
*1271 net220
*1272 net221
*1273 net222
*1274 net223
*1275 net224
*1276 net225
*1277 net226
*1278 net227
*1279 net228
*1280 net229
*1281 net23
*1282 net230
*1283 net231
*1284 net24
*1285 net25
*1286 net26
*1287 net27
*1288 net28
*1289 net29
*1290 net3
*1291 net30
*1292 net31
*1293 net32
*1294 net33
*1295 net34
*1296 net35
*1297 net36
*1298 net37
*1299 net38
*1300 net39
*1301 net4
*1302 net40
*1303 net41
*1304 net42
*1305 net43
*1306 net44
*1307 net45
*1308 net46
*1309 net47
*1310 net48
*1311 net49
*1312 net5
*1313 net50
*1314 net51
*1315 net52
*1316 net53
*1317 net54
*1318 net55
*1319 net56
*1320 net57
*1321 net58
*1322 net59
*1323 net6
*1324 net60
*1325 net61
*1326 net62
*1327 net63
*1328 net64
*1329 net65
*1330 net66
*1331 net67
*1332 net68
*1333 net69
*1334 net7
*1335 net70
*1336 net71
*1337 net72
*1338 net73
*1339 net74
*1340 net75
*1341 net76
*1342 net77
*1343 net78
*1344 net79
*1345 net8
*1346 net80
*1347 net81
*1348 net82
*1349 net83
*1350 net84
*1351 net85
*1352 net86
*1353 net87
*1354 net88
*1355 net89
*1356 net9
*1357 net90
*1358 net91
*1359 net92
*1360 net93
*1361 net94
*1362 net95
*1363 net96
*1364 net97
*1365 net98
*1366 net99
*1367 state\[0\]
*1368 state\[100\]
*1369 state\[101\]
*1370 state\[102\]
*1371 state\[103\]
*1372 state\[104\]
*1373 state\[105\]
*1374 state\[106\]
*1375 state\[107\]
*1376 state\[108\]
*1377 state\[109\]
*1378 state\[10\]
*1379 state\[110\]
*1380 state\[111\]
*1381 state\[112\]
*1382 state\[113\]
*1383 state\[114\]
*1384 state\[115\]
*1385 state\[116\]
*1386 state\[117\]
*1387 state\[118\]
*1388 state\[119\]
*1389 state\[11\]
*1390 state\[120\]
*1391 state\[121\]
*1392 state\[122\]
*1393 state\[123\]
*1394 state\[124\]
*1395 state\[125\]
*1396 state\[126\]
*1397 state\[127\]
*1398 state\[12\]
*1399 state\[13\]
*1400 state\[14\]
*1401 state\[15\]
*1402 state\[16\]
*1403 state\[17\]
*1404 state\[18\]
*1405 state\[19\]
*1406 state\[1\]
*1407 state\[20\]
*1408 state\[21\]
*1409 state\[22\]
*1410 state\[23\]
*1411 state\[24\]
*1412 state\[25\]
*1413 state\[26\]
*1414 state\[27\]
*1415 state\[28\]
*1416 state\[29\]
*1417 state\[2\]
*1418 state\[30\]
*1419 state\[31\]
*1420 state\[32\]
*1421 state\[33\]
*1422 state\[34\]
*1423 state\[35\]
*1424 state\[36\]
*1425 state\[37\]
*1426 state\[38\]
*1427 state\[39\]
*1428 state\[3\]
*1429 state\[40\]
*1430 state\[41\]
*1431 state\[42\]
*1432 state\[43\]
*1433 state\[44\]
*1434 state\[45\]
*1435 state\[46\]
*1436 state\[47\]
*1437 state\[48\]
*1438 state\[49\]
*1439 state\[4\]
*1440 state\[50\]
*1441 state\[51\]
*1442 state\[52\]
*1443 state\[53\]
*1444 state\[54\]
*1445 state\[55\]
*1446 state\[56\]
*1447 state\[57\]
*1448 state\[58\]
*1449 state\[59\]
*1450 state\[5\]
*1451 state\[60\]
*1452 state\[61\]
*1453 state\[62\]
*1454 state\[63\]
*1455 state\[64\]
*1456 state\[65\]
*1457 state\[66\]
*1458 state\[67\]
*1459 state\[68\]
*1460 state\[69\]
*1461 state\[6\]
*1462 state\[70\]
*1463 state\[71\]
*1464 state\[72\]
*1465 state\[73\]
*1466 state\[74\]
*1467 state\[75\]
*1468 state\[76\]
*1469 state\[77\]
*1470 state\[78\]
*1471 state\[79\]
*1472 state\[7\]
*1473 state\[80\]
*1474 state\[81\]
*1475 state\[82\]
*1476 state\[83\]
*1477 state\[84\]
*1478 state\[85\]
*1479 state\[86\]
*1480 state\[87\]
*1481 state\[88\]
*1482 state\[89\]
*1483 state\[8\]
*1484 state\[90\]
*1485 state\[91\]
*1486 state\[92\]
*1487 state\[93\]
*1488 state\[94\]
*1489 state\[95\]
*1490 state\[96\]
*1491 state\[97\]
*1492 state\[98\]
*1493 state\[99\]
*1494 state\[9\]
*1495 vssa
*1496 ANTENNA_1
*1497 ANTENNA_2
*1498 ANTENNA_3
*1499 FILLER_0_0
*1500 FILLER_0_105
*1501 FILLER_0_112
*1502 FILLER_0_119
*1503 FILLER_0_126
*1504 FILLER_0_133
*1505 FILLER_0_14
*1506 FILLER_0_140
*1507 FILLER_0_147
*1508 FILLER_0_154
*1509 FILLER_0_161
*1510 FILLER_0_168
*1511 FILLER_0_175
*1512 FILLER_0_182
*1513 FILLER_0_189
*1514 FILLER_0_196
*1515 FILLER_0_203
*1516 FILLER_0_21
*1517 FILLER_0_210
*1518 FILLER_0_217
*1519 FILLER_0_224
*1520 FILLER_0_231
*1521 FILLER_0_238
*1522 FILLER_0_245
*1523 FILLER_0_252
*1524 FILLER_0_259
*1525 FILLER_0_266
*1526 FILLER_0_273
*1527 FILLER_0_28
*1528 FILLER_0_280
*1529 FILLER_0_287
*1530 FILLER_0_294
*1531 FILLER_0_301
*1532 FILLER_0_308
*1533 FILLER_0_315
*1534 FILLER_0_322
*1535 FILLER_0_329
*1536 FILLER_0_336
*1537 FILLER_0_343
*1538 FILLER_0_35
*1539 FILLER_0_350
*1540 FILLER_0_357
*1541 FILLER_0_364
*1542 FILLER_0_371
*1543 FILLER_0_378
*1544 FILLER_0_385
*1545 FILLER_0_392
*1546 FILLER_0_399
*1547 FILLER_0_413
*1548 FILLER_0_42
*1549 FILLER_0_420
*1550 FILLER_0_427
*1551 FILLER_0_434
*1552 FILLER_0_441
*1553 FILLER_0_448
*1554 FILLER_0_455
*1555 FILLER_0_462
*1556 FILLER_0_469
*1557 FILLER_0_476
*1558 FILLER_0_483
*1559 FILLER_0_49
*1560 FILLER_0_490
*1561 FILLER_0_497
*1562 FILLER_0_504
*1563 FILLER_0_511
*1564 FILLER_0_518
*1565 FILLER_0_525
*1566 FILLER_0_532
*1567 FILLER_0_539
*1568 FILLER_0_546
*1569 FILLER_0_56
*1570 FILLER_0_567
*1571 FILLER_0_582
*1572 FILLER_0_589
*1573 FILLER_0_596
*1574 FILLER_0_603
*1575 FILLER_0_610
*1576 FILLER_0_617
*1577 FILLER_0_624
*1578 FILLER_0_63
*1579 FILLER_0_631
*1580 FILLER_0_638
*1581 FILLER_0_645
*1582 FILLER_0_652
*1583 FILLER_0_659
*1584 FILLER_0_666
*1585 FILLER_0_673
*1586 FILLER_0_680
*1587 FILLER_0_687
*1588 FILLER_0_694
*1589 FILLER_0_7
*1590 FILLER_0_70
*1591 FILLER_0_701
*1592 FILLER_0_716
*1593 FILLER_0_723
*1594 FILLER_0_730
*1595 FILLER_0_737
*1596 FILLER_0_744
*1597 FILLER_0_751
*1598 FILLER_0_758
*1599 FILLER_0_765
*1600 FILLER_0_77
*1601 FILLER_0_772
*1602 FILLER_0_779
*1603 FILLER_0_786
*1604 FILLER_0_793
*1605 FILLER_0_800
*1606 FILLER_0_807
*1607 FILLER_0_814
*1608 FILLER_0_816
*1609 FILLER_0_830
*1610 FILLER_0_837
*1611 FILLER_0_84
*1612 FILLER_0_844
*1613 FILLER_0_851
*1614 FILLER_0_858
*1615 FILLER_0_876
*1616 FILLER_0_883
*1617 FILLER_0_890
*1618 FILLER_0_897
*1619 FILLER_0_904
*1620 FILLER_0_91
*1621 FILLER_0_911
*1622 FILLER_0_918
*1623 FILLER_0_925
*1624 FILLER_0_98
*1625 FILLER_10_106
*1626 FILLER_10_113
*1627 FILLER_10_120
*1628 FILLER_10_127
*1629 FILLER_10_134
*1630 FILLER_10_141
*1631 FILLER_10_148
*1632 FILLER_10_15
*1633 FILLER_10_155
*1634 FILLER_10_162
*1635 FILLER_10_169
*1636 FILLER_10_176
*1637 FILLER_10_183
*1638 FILLER_10_190
*1639 FILLER_10_197
*1640 FILLER_10_204
*1641 FILLER_10_211
*1642 FILLER_10_218
*1643 FILLER_10_22
*1644 FILLER_10_225
*1645 FILLER_10_232
*1646 FILLER_10_239
*1647 FILLER_10_246
*1648 FILLER_10_253
*1649 FILLER_10_260
*1650 FILLER_10_267
*1651 FILLER_10_274
*1652 FILLER_10_281
*1653 FILLER_10_288
*1654 FILLER_10_29
*1655 FILLER_10_295
*1656 FILLER_10_302
*1657 FILLER_10_309
*1658 FILLER_10_316
*1659 FILLER_10_323
*1660 FILLER_10_330
*1661 FILLER_10_36
*1662 FILLER_10_361
*1663 FILLER_10_43
*1664 FILLER_10_433
*1665 FILLER_10_440
*1666 FILLER_10_447
*1667 FILLER_10_454
*1668 FILLER_10_461
*1669 FILLER_10_468
*1670 FILLER_10_474
*1671 FILLER_10_488
*1672 FILLER_10_494
*1673 FILLER_10_50
*1674 FILLER_10_501
*1675 FILLER_10_503
*1676 FILLER_10_509
*1677 FILLER_10_516
*1678 FILLER_10_523
*1679 FILLER_10_530
*1680 FILLER_10_534
*1681 FILLER_10_548
*1682 FILLER_10_555
*1683 FILLER_10_562
*1684 FILLER_10_569
*1685 FILLER_10_57
*1686 FILLER_10_573
*1687 FILLER_10_639
*1688 FILLER_10_64
*1689 FILLER_10_646
*1690 FILLER_10_650
*1691 FILLER_10_656
*1692 FILLER_10_658
*1693 FILLER_10_664
*1694 FILLER_10_671
*1695 FILLER_10_699
*1696 FILLER_10_71
*1697 FILLER_10_735
*1698 FILLER_10_745
*1699 FILLER_10_758
*1700 FILLER_10_765
*1701 FILLER_10_772
*1702 FILLER_10_776
*1703 FILLER_10_78
*1704 FILLER_10_783
*1705 FILLER_10_795
*1706 FILLER_10_8
*1707 FILLER_10_801
*1708 FILLER_10_808
*1709 FILLER_10_815
*1710 FILLER_10_822
*1711 FILLER_10_829
*1712 FILLER_10_833
*1713 FILLER_10_840
*1714 FILLER_10_844
*1715 FILLER_10_85
*1716 FILLER_10_855
*1717 FILLER_10_859
*1718 FILLER_10_910
*1719 FILLER_10_917
*1720 FILLER_10_92
*1721 FILLER_10_924
*1722 FILLER_10_926
*1723 FILLER_10_99
*1724 FILLER_11_100
*1725 FILLER_11_107
*1726 FILLER_11_114
*1727 FILLER_11_121
*1728 FILLER_11_128
*1729 FILLER_11_13
*1730 FILLER_11_135
*1731 FILLER_11_142
*1732 FILLER_11_149
*1733 FILLER_11_156
*1734 FILLER_11_163
*1735 FILLER_11_170
*1736 FILLER_11_177
*1737 FILLER_11_184
*1738 FILLER_11_191
*1739 FILLER_11_198
*1740 FILLER_11_20
*1741 FILLER_11_205
*1742 FILLER_11_212
*1743 FILLER_11_219
*1744 FILLER_11_226
*1745 FILLER_11_233
*1746 FILLER_11_240
*1747 FILLER_11_247
*1748 FILLER_11_254
*1749 FILLER_11_261
*1750 FILLER_11_268
*1751 FILLER_11_27
*1752 FILLER_11_275
*1753 FILLER_11_282
*1754 FILLER_11_289
*1755 FILLER_11_296
*1756 FILLER_11_303
*1757 FILLER_11_310
*1758 FILLER_11_317
*1759 FILLER_11_324
*1760 FILLER_11_331
*1761 FILLER_11_338
*1762 FILLER_11_34
*1763 FILLER_11_345
*1764 FILLER_11_349
*1765 FILLER_11_387
*1766 FILLER_11_389
*1767 FILLER_11_393
*1768 FILLER_11_397
*1769 FILLER_11_4
*1770 FILLER_11_409
*1771 FILLER_11_41
*1772 FILLER_11_418
*1773 FILLER_11_425
*1774 FILLER_11_432
*1775 FILLER_11_439
*1776 FILLER_11_477
*1777 FILLER_11_48
*1778 FILLER_11_481
*1779 FILLER_11_515
*1780 FILLER_11_519
*1781 FILLER_11_55
*1782 FILLER_11_552
*1783 FILLER_11_588
*1784 FILLER_11_594
*1785 FILLER_11_601
*1786 FILLER_11_608
*1787 FILLER_11_615
*1788 FILLER_11_65
*1789 FILLER_11_681
*1790 FILLER_11_683
*1791 FILLER_11_688
*1792 FILLER_11_697
*1793 FILLER_11_707
*1794 FILLER_11_714
*1795 FILLER_11_72
*1796 FILLER_11_721
*1797 FILLER_11_729
*1798 FILLER_11_763
*1799 FILLER_11_770
*1800 FILLER_11_772
*1801 FILLER_11_779
*1802 FILLER_11_789
*1803 FILLER_11_79
*1804 FILLER_11_822
*1805 FILLER_11_824
*1806 FILLER_11_828
*1807 FILLER_11_834
*1808 FILLER_11_839
*1809 FILLER_11_86
*1810 FILLER_11_874
*1811 FILLER_11_881
*1812 FILLER_11_888
*1813 FILLER_11_895
*1814 FILLER_11_926
*1815 FILLER_11_93
*1816 FILLER_12_101
*1817 FILLER_12_108
*1818 FILLER_12_115
*1819 FILLER_12_122
*1820 FILLER_12_129
*1821 FILLER_12_13
*1822 FILLER_12_136
*1823 FILLER_12_143
*1824 FILLER_12_150
*1825 FILLER_12_157
*1826 FILLER_12_164
*1827 FILLER_12_171
*1828 FILLER_12_178
*1829 FILLER_12_185
*1830 FILLER_12_192
*1831 FILLER_12_199
*1832 FILLER_12_20
*1833 FILLER_12_206
*1834 FILLER_12_213
*1835 FILLER_12_220
*1836 FILLER_12_227
*1837 FILLER_12_234
*1838 FILLER_12_241
*1839 FILLER_12_248
*1840 FILLER_12_255
*1841 FILLER_12_262
*1842 FILLER_12_269
*1843 FILLER_12_27
*1844 FILLER_12_276
*1845 FILLER_12_283
*1846 FILLER_12_290
*1847 FILLER_12_297
*1848 FILLER_12_304
*1849 FILLER_12_311
*1850 FILLER_12_318
*1851 FILLER_12_325
*1852 FILLER_12_332
*1853 FILLER_12_339
*1854 FILLER_12_346
*1855 FILLER_12_35
*1856 FILLER_12_350
*1857 FILLER_12_361
*1858 FILLER_12_368
*1859 FILLER_12_375
*1860 FILLER_12_379
*1861 FILLER_12_386
*1862 FILLER_12_390
*1863 FILLER_12_396
*1864 FILLER_12_4
*1865 FILLER_12_403
*1866 FILLER_12_42
*1867 FILLER_12_442
*1868 FILLER_12_449
*1869 FILLER_12_456
*1870 FILLER_12_458
*1871 FILLER_12_464
*1872 FILLER_12_476
*1873 FILLER_12_487
*1874 FILLER_12_494
*1875 FILLER_12_501
*1876 FILLER_12_505
*1877 FILLER_12_509
*1878 FILLER_12_518
*1879 FILLER_12_525
*1880 FILLER_12_537
*1881 FILLER_12_544
*1882 FILLER_12_551
*1883 FILLER_12_553
*1884 FILLER_12_557
*1885 FILLER_12_564
*1886 FILLER_12_571
*1887 FILLER_12_578
*1888 FILLER_12_582
*1889 FILLER_12_613
*1890 FILLER_12_636
*1891 FILLER_12_643
*1892 FILLER_12_649
*1893 FILLER_12_656
*1894 FILLER_12_663
*1895 FILLER_12_670
*1896 FILLER_12_677
*1897 FILLER_12_684
*1898 FILLER_12_688
*1899 FILLER_12_728
*1900 FILLER_12_732
*1901 FILLER_12_741
*1902 FILLER_12_745
*1903 FILLER_12_750
*1904 FILLER_12_757
*1905 FILLER_12_764
*1906 FILLER_12_766
*1907 FILLER_12_794
*1908 FILLER_12_808
*1909 FILLER_12_815
*1910 FILLER_12_817
*1911 FILLER_12_821
*1912 FILLER_12_823
*1913 FILLER_12_854
*1914 FILLER_12_858
*1915 FILLER_12_865
*1916 FILLER_12_872
*1917 FILLER_12_879
*1918 FILLER_12_88
*1919 FILLER_12_881
*1920 FILLER_12_90
*1921 FILLER_12_908
*1922 FILLER_12_915
*1923 FILLER_12_922
*1924 FILLER_12_926
*1925 FILLER_12_94
*1926 FILLER_13_114